/*---------------------------------------------------------------------------*\
| =========                 |                                                 |
| \\      /  F ield         | OpenFOAM: The Open Source CFD Toolbox           |
|  \\    /   O peration     | Version:  4.1                                   |
|   \\  /    A nd           | Web:      www.OpenFOAM.org                      |
|    \\/     M anipulation  |                                                 |
\*---------------------------------------------------------------------------*/
Build  : 4.1
Exec   : interFoam
Date   : Dec 12 2017
Time   : 22:41:38
Host   : "gatopardo"
PID    : 3491
Case   : /home/daniel/ddcampayo.github.io/Curso_CFD_OS/wigley
nProcs : 1
sigFpe : Enabling floating point exception trapping (FOAM_SIGFPE).
fileModificationChecking : Monitoring run-time modified files using timeStampMaster
allowSystemOperations : Allowing user-supplied system call operations

// * * * * * * * * * * * * * * * * * * * * * * * * * * * * * * * * * * * * * //
Create time

Create mesh for time = 0


PIMPLE: Operating solver in PISO mode

Using LTS
Reading field p_rgh

Reading field U

Reading/calculating face flux field phi

Reading transportProperties

Selecting incompressible transport model Newtonian
Selecting incompressible transport model Newtonian
Selecting turbulence model type RAS
Selecting RAS turbulence model kOmegaSST
Selecting patchDistMethod meshWave
kOmegaSSTCoeffs
{
    alphaK1         0.85;
    alphaK2         1;
    alphaOmega1     0.5;
    alphaOmega2     0.856;
    gamma1          0.555556;
    gamma2          0.44;
    beta1           0.075;
    beta2           0.0828;
    betaStar        0.09;
    a1              0.31;
    b1              1;
    c1              10;
    F3              false;
}


Reading g

Reading hRef
Calculating field g.h

No MRF models present

No finite volume options present

GAMGPCG:  Solving for pcorr, Initial residual = 1, Final residual = 1.95182e-06, No Iterations 7
time step continuity errors : sum local = 7.67747e-11, global = 1.49636e-12, cumulative = 1.49636e-12

Starting time loop

forces forces:
    Not including porosity effects
Flow time scale min/max = 0.00594876, 1
Smoothed flow time scale min/max = 0.00594876, 0.663323
Time = 0.01

PIMPLE: iteration 1
smoothSolver:  Solving for alpha.water, Initial residual = 9.77566e-05, Final residual = 8.7936e-09, No Iterations 6
Phase-1 volume fraction = 0.88482  Min(alpha.water) = 0  Max(alpha.water) = 1
MULES: Correcting alpha.water
MULES: Correcting alpha.water
Phase-1 volume fraction = 0.88482  Min(alpha.water) = -1.9216e-05  Max(alpha.water) = 1
GAMG:  Solving for p_rgh, Initial residual = 1, Final residual = 0.00424754, No Iterations 2
time step continuity errors : sum local = 0.00377029, global = -0.00223299, cumulative = -0.00223299
GAMG:  Solving for p_rgh, Initial residual = 0.000134359, Final residual = 2.80597e-08, No Iterations 8
time step continuity errors : sum local = 1.67625e-06, global = -3.75334e-07, cumulative = -0.00223336
smoothSolver:  Solving for omega, Initial residual = 0.0102397, Final residual = 0.000580523, No Iterations 1
bounding omega, min: -0.357305 max: 7334.97 average: 9.24393
smoothSolver:  Solving for k, Initial residual = 1, Final residual = 0.0565018, No Iterations 2
ExecutionTime = 4.78 s  ClockTime = 5 s

forces forces write:
    sum of forces:
        pressure : (0.0950904 -0.788109 0.557492)
        viscous  : (0.00792448 1.52105e-05 2.95883e-07)
        porous   : (0 0 0)
    sum of moments:
        pressure : (-0.180019 1.64262 2.3893)
        viscous  : (3.05644e-06 -0.00184992 -0.000234438)
        porous   : (0 0 0)

Flow time scale min/max = 0.0134861, 1
Smoothed flow time scale min/max = 0.0134861, 0.666724
Time = 0.02

PIMPLE: iteration 1
smoothSolver:  Solving for alpha.water, Initial residual = 0.000772786, Final residual = 8.54092e-09, No Iterations 15
Phase-1 volume fraction = 0.884805  Min(alpha.water) = -4.00338e-07  Max(alpha.water) = 1.00002
Applying the previous iteration compression flux
MULES: Correcting alpha.water
MULES: Correcting alpha.water
MULES: Correcting alpha.water
Phase-1 volume fraction = 0.884803  Min(alpha.water) = -0.00535765  Max(alpha.water) = 1.00414
GAMG:  Solving for p_rgh, Initial residual = 0.00305262, Final residual = 1.90065e-05, No Iterations 2
time step continuity errors : sum local = 0.00146907, global = -0.00134877, cumulative = -0.00358213
GAMG:  Solving for p_rgh, Initial residual = 5.5727e-05, Final residual = 6.24413e-08, No Iterations 5
time step continuity errors : sum local = 4.65504e-06, global = 1.85376e-06, cumulative = -0.00358028
smoothSolver:  Solving for omega, Initial residual = 0.00940307, Final residual = 0.000271889, No Iterations 2
bounding omega, min: -21.0694 max: 7333.29 average: 9.27764
smoothSolver:  Solving for k, Initial residual = 0.390516, Final residual = 0.0369485, No Iterations 2
ExecutionTime = 7.91 s  ClockTime = 8 s

forces forces write:
    sum of forces:
        pressure : (0.0109133 -0.946969 0.689745)
        viscous  : (0.00746295 3.86298e-05 0.000111068)
        porous   : (0 0 0)
    sum of moments:
        pressure : (-0.216822 2.02075 2.78281)
        viscous  : (1.0072e-05 -0.00142614 -0.000330013)
        porous   : (0 0 0)

Flow time scale min/max = 0.00100908, 1
Smoothed flow time scale min/max = 0.00100908, 0.118614
Damped flow time scale min/max = 0.00100908, 0.118614
Time = 0.03

PIMPLE: iteration 1
smoothSolver:  Solving for alpha.water, Initial residual = 7.19102e-05, Final residual = 4.0231e-09, No Iterations 4
Phase-1 volume fraction = 0.88483  Min(alpha.water) = -0.00511779  Max(alpha.water) = 1.0038
Applying the previous iteration compression flux
MULES: Correcting alpha.water
MULES: Correcting alpha.water
MULES: Correcting alpha.water
Phase-1 volume fraction = 0.88483  Min(alpha.water) = -0.00849207  Max(alpha.water) = 1.00466
GAMG:  Solving for p_rgh, Initial residual = 0.00161891, Final residual = 2.54942e-06, No Iterations 2
time step continuity errors : sum local = 6.70179e-05, global = -1.16313e-05, cumulative = -0.00359191
GAMG:  Solving for p_rgh, Initial residual = 2.228e-05, Final residual = 6.41909e-08, No Iterations 4
time step continuity errors : sum local = 1.6921e-06, global = 1.1248e-06, cumulative = -0.00359078
smoothSolver:  Solving for omega, Initial residual = 0.00073175, Final residual = 3.40417e-05, No Iterations 1
bounding omega, min: -0.0916796 max: 7024.29 average: 9.278
smoothSolver:  Solving for k, Initial residual = 0.0111977, Final residual = 0.000264168, No Iterations 1
ExecutionTime = 11.16 s  ClockTime = 11 s

forces forces write:
    sum of forces:
        pressure : (0.0075907 -0.914624 0.670113)
        viscous  : (0.00717749 7.26748e-05 8.99064e-05)
        porous   : (0 0 0)
    sum of moments:
        pressure : (-0.209697 1.96311 2.68524)
        viscous  : (1.70327e-05 -0.00143487 -0.000437947)
        porous   : (0 0 0)

Flow time scale min/max = 0.00217778, 1
Smoothed flow time scale min/max = 0.00217778, 0.266325
Damped flow time scale min/max = 0.00201815, 0.1635
Time = 0.04

PIMPLE: iteration 1
smoothSolver:  Solving for alpha.water, Initial residual = 9.00707e-05, Final residual = 2.46749e-09, No Iterations 5
Phase-1 volume fraction = 0.884839  Min(alpha.water) = -0.00463273  Max(alpha.water) = 1.00315
Applying the previous iteration compression flux
MULES: Correcting alpha.water
MULES: Correcting alpha.water
MULES: Correcting alpha.water
Phase-1 volume fraction = 0.884842  Min(alpha.water) = -0.00457747  Max(alpha.water) = 1.00315
GAMG:  Solving for p_rgh, Initial residual = 0.00149186, Final residual = 1.47498e-05, No Iterations 1
time step continuity errors : sum local = 0.000387057, global = 4.91682e-05, cumulative = -0.00354161
GAMG:  Solving for p_rgh, Initial residual = 3.17054e-05, Final residual = 4.29687e-08, No Iterations 5
time step continuity errors : sum local = 1.12809e-06, global = 4.19237e-07, cumulative = -0.00354119
smoothSolver:  Solving for omega, Initial residual = 0.00065452, Final residual = 2.53699e-05, No Iterations 1
smoothSolver:  Solving for k, Initial residual = 0.0130882, Final residual = 0.000396674, No Iterations 1
ExecutionTime = 14.34 s  ClockTime = 14 s

forces forces write:
    sum of forces:
        pressure : (0.00828007 -0.914213 0.670856)
        viscous  : (0.00692442 8.51857e-05 7.74055e-05)
        porous   : (0 0 0)
    sum of moments:
        pressure : (-0.209607 1.96524 2.68452)
        viscous  : (1.94349e-05 -0.00142461 -0.000475262)
        porous   : (0 0 0)

Flow time scale min/max = 0.00664843, 1
Smoothed flow time scale min/max = 0.00664843, 0.217245
Damped flow time scale min/max = 0.0040363, 0.217245
Time = 0.05

PIMPLE: iteration 1
smoothSolver:  Solving for alpha.water, Initial residual = 0.000186416, Final residual = 4.77665e-09, No Iterations 6
Phase-1 volume fraction = 0.88485  Min(alpha.water) = -0.0037275  Max(alpha.water) = 1.0023
Applying the previous iteration compression flux
MULES: Correcting alpha.water
MULES: Correcting alpha.water
MULES: Correcting alpha.water
Phase-1 volume fraction = 0.884855  Min(alpha.water) = -0.00359349  Max(alpha.water) = 1.0023
GAMG:  Solving for p_rgh, Initial residual = 0.00184102, Final residual = 2.0212e-06, No Iterations 2
time step continuity errors : sum local = 6.84189e-05, global = 2.30798e-06, cumulative = -0.00353889
GAMG:  Solving for p_rgh, Initial residual = 2.00548e-05, Final residual = 4.18443e-08, No Iterations 3
time step continuity errors : sum local = 1.41597e-06, global = 1.35802e-07, cumulative = -0.00353875
smoothSolver:  Solving for omega, Initial residual = 0.00100878, Final residual = 5.42554e-05, No Iterations 1
smoothSolver:  Solving for k, Initial residual = 0.023733, Final residual = 0.00123833, No Iterations 1
ExecutionTime = 17.37 s  ClockTime = 17 s

forces forces write:
    sum of forces:
        pressure : (0.00728612 -0.915626 0.671694)
        viscous  : (0.0067084 9.52529e-05 6.74576e-05)
        porous   : (0 0 0)
    sum of moments:
        pressure : (-0.20991 1.96753 2.68774)
        viscous  : (2.12637e-05 -0.00141136 -0.000504334)
        porous   : (0 0 0)

Flow time scale min/max = 0.00646266, 1
Smoothed flow time scale min/max = 0.00646266, 0.271865
Damped flow time scale min/max = 0.00646266, 0.130258
Time = 0.06

PIMPLE: iteration 1
smoothSolver:  Solving for alpha.water, Initial residual = 0.000311515, Final residual = 2.74546e-09, No Iterations 5
Phase-1 volume fraction = 0.884829  Min(alpha.water) = -0.00206902  Max(alpha.water) = 1.00161
Applying the previous iteration compression flux
MULES: Correcting alpha.water
MULES: Correcting alpha.water
MULES: Correcting alpha.water
Phase-1 volume fraction = 0.884837  Min(alpha.water) = -0.00316344  Max(alpha.water) = 1.00161
GAMG:  Solving for p_rgh, Initial residual = 0.00149712, Final residual = 1.91506e-06, No Iterations 2
time step continuity errors : sum local = 6.78541e-05, global = -1.00527e-05, cumulative = -0.0035488
GAMG:  Solving for p_rgh, Initial residual = 1.98134e-05, Final residual = 4.45192e-08, No Iterations 3
time step continuity errors : sum local = 1.57632e-06, global = -1.63059e-07, cumulative = -0.00354897
smoothSolver:  Solving for omega, Initial residual = 0.00115344, Final residual = 4.96657e-05, No Iterations 1
smoothSolver:  Solving for k, Initial residual = 0.0322815, Final residual = 0.00136768, No Iterations 1
ExecutionTime = 20.68 s  ClockTime = 21 s

forces forces write:
    sum of forces:
        pressure : (0.00743654 -0.91437 0.67094)
        viscous  : (0.00652445 9.87467e-05 6.51918e-05)
        porous   : (0 0 0)
    sum of moments:
        pressure : (-0.209616 1.96531 2.68418)
        viscous  : (2.18551e-05 -0.00138104 -0.000512565)
        porous   : (0 0 0)

Flow time scale min/max = 0.00279671, 1
Smoothed flow time scale min/max = 0.00279671, 0.195037
Damped flow time scale min/max = 0.00279671, 0.167931
Time = 0.07

PIMPLE: iteration 1
smoothSolver:  Solving for alpha.water, Initial residual = 0.00031827, Final residual = 2.94526e-09, No Iterations 6
Phase-1 volume fraction = 0.88481  Min(alpha.water) = -0.000577179  Max(alpha.water) = 1.00138
Applying the previous iteration compression flux
MULES: Correcting alpha.water
MULES: Correcting alpha.water
MULES: Correcting alpha.water
Phase-1 volume fraction = 0.884812  Min(alpha.water) = -0.000995873  Max(alpha.water) = 1.00138
GAMG:  Solving for p_rgh, Initial residual = 0.00148496, Final residual = 2.28477e-06, No Iterations 2
time step continuity errors : sum local = 9.45278e-05, global = 1.28272e-05, cumulative = -0.00353614
GAMG:  Solving for p_rgh, Initial residual = 2.13173e-05, Final residual = 5.43032e-08, No Iterations 3
time step continuity errors : sum local = 2.24574e-06, global = 3.15037e-07, cumulative = -0.00353582
smoothSolver:  Solving for omega, Initial residual = 0.00117356, Final residual = 6.13609e-05, No Iterations 1
smoothSolver:  Solving for k, Initial residual = 0.028694, Final residual = 0.00188524, No Iterations 1
ExecutionTime = 23.73 s  ClockTime = 24 s

forces forces write:
    sum of forces:
        pressure : (0.00787708 -0.914595 0.670824)
        viscous  : (0.0063476 0.000101863 5.66043e-05)
        porous   : (0 0 0)
    sum of moments:
        pressure : (-0.209651 1.96499 2.68522)
        viscous  : (2.22756e-05 -0.00137124 -0.000519098)
        porous   : (0 0 0)

Flow time scale min/max = 0.000505483, 1
Smoothed flow time scale min/max = 0.000505483, 0.158332
Damped flow time scale min/max = 0.000505483, 0.158332
Time = 0.08

PIMPLE: iteration 1
smoothSolver:  Solving for alpha.water, Initial residual = 9.48543e-05, Final residual = 7.72631e-09, No Iterations 4
Phase-1 volume fraction = 0.884801  Min(alpha.water) = -0.00097064  Max(alpha.water) = 1.00136
Applying the previous iteration compression flux
MULES: Correcting alpha.water
MULES: Correcting alpha.water
MULES: Correcting alpha.water
Phase-1 volume fraction = 0.884802  Min(alpha.water) = -0.00097029  Max(alpha.water) = 1.00136
GAMG:  Solving for p_rgh, Initial residual = 0.00145027, Final residual = 1.75781e-06, No Iterations 2
time step continuity errors : sum local = 5.73691e-05, global = 5.48509e-06, cumulative = -0.00353034
GAMG:  Solving for p_rgh, Initial residual = 1.93782e-05, Final residual = 4.92923e-08, No Iterations 3
time step continuity errors : sum local = 1.60617e-06, global = 4.11093e-07, cumulative = -0.00352993
smoothSolver:  Solving for omega, Initial residual = 0.000385652, Final residual = 2.16795e-05, No Iterations 1
smoothSolver:  Solving for k, Initial residual = 0.00689929, Final residual = 0.000405182, No Iterations 1
ExecutionTime = 26.8 s  ClockTime = 27 s

forces forces write:
    sum of forces:
        pressure : (0.00840126 -0.916976 0.671858)
        viscous  : (0.00614442 0.000102536 3.17902e-05)
        porous   : (0 0 0)
    sum of moments:
        pressure : (-0.210168 1.96804 2.69262)
        viscous  : (2.18362e-05 -0.00140419 -0.000516689)
        porous   : (0 0 0)

Flow time scale min/max = 0.00776676, 1
Smoothed flow time scale min/max = 0.00776676, 0.327655
Damped flow time scale min/max = 0.00101097, 0.137823
Time = 0.09

PIMPLE: iteration 1
smoothSolver:  Solving for alpha.water, Initial residual = 0.000158925, Final residual = 3.25349e-09, No Iterations 5
Phase-1 volume fraction = 0.884755  Min(alpha.water) = -0.000919019  Max(alpha.water) = 1.00132
Applying the previous iteration compression flux
MULES: Correcting alpha.water
MULES: Correcting alpha.water
MULES: Correcting alpha.water
Phase-1 volume fraction = 0.884756  Min(alpha.water) = -0.00115169  Max(alpha.water) = 1.00132
GAMG:  Solving for p_rgh, Initial residual = 0.00116255, Final residual = 1.57299e-06, No Iterations 2
time step continuity errors : sum local = 5.57292e-05, global = 2.33552e-06, cumulative = -0.00352759
GAMG:  Solving for p_rgh, Initial residual = 2.2239e-05, Final residual = 6.04963e-08, No Iterations 3
time step continuity errors : sum local = 2.14421e-06, global = 3.42769e-07, cumulative = -0.00352725
smoothSolver:  Solving for omega, Initial residual = 0.000557003, Final residual = 2.72489e-05, No Iterations 1
smoothSolver:  Solving for k, Initial residual = 0.0123267, Final residual = 0.000809991, No Iterations 1
ExecutionTime = 29.84 s  ClockTime = 30 s

forces forces write:
    sum of forces:
        pressure : (0.00830881 -0.914598 0.670336)
        viscous  : (0.00599408 0.00010457 2.16411e-05)
        porous   : (0 0 0)
    sum of moments:
        pressure : (-0.209621 1.96356 2.68557)
        viscous  : (2.20308e-05 -0.00140321 -0.000518329)
        porous   : (0 0 0)

Flow time scale min/max = 0.0103993, 1
Smoothed flow time scale min/max = 0.0103993, 0.316576
Damped flow time scale min/max = 0.00202193, 0.159918
Time = 0.1

PIMPLE: iteration 1
smoothSolver:  Solving for alpha.water, Initial residual = 0.000282216, Final residual = 9.28902e-09, No Iterations 5
Phase-1 volume fraction = 0.884732  Min(alpha.water) = -0.00082408  Max(alpha.water) = 1.00125
Applying the previous iteration compression flux
MULES: Correcting alpha.water
MULES: Correcting alpha.water
MULES: Correcting alpha.water
Phase-1 volume fraction = 0.884734  Min(alpha.water) = -0.000820493  Max(alpha.water) = 1.00125
GAMG:  Solving for p_rgh, Initial residual = 0.00145896, Final residual = 2.33308e-06, No Iterations 2
time step continuity errors : sum local = 9.81073e-05, global = 1.42792e-05, cumulative = -0.00351297
GAMG:  Solving for p_rgh, Initial residual = 2.25238e-05, Final residual = 5.91959e-08, No Iterations 3
time step continuity errors : sum local = 2.48756e-06, global = 7.38631e-07, cumulative = -0.00351223
smoothSolver:  Solving for omega, Initial residual = 0.00101972, Final residual = 6.71682e-05, No Iterations 1
smoothSolver:  Solving for k, Initial residual = 0.0217561, Final residual = 0.00160982, No Iterations 1
ExecutionTime = 32.87 s  ClockTime = 33 s

forces forces write:
    sum of forces:
        pressure : (0.00888361 -0.917745 0.672264)
        viscous  : (0.00580446 0.000103549 -2.75176e-06)
        porous   : (0 0 0)
    sum of moments:
        pressure : (-0.210319 1.96926 2.69529)
        viscous  : (2.12155e-05 -0.00143583 -0.000508891)
        porous   : (0 0 0)

Flow time scale min/max = 0.0108343, 1
Smoothed flow time scale min/max = 0.0108343, 0.319305
Damped flow time scale min/max = 0.00404386, 0.167345
Time = 0.11

PIMPLE: iteration 1
smoothSolver:  Solving for alpha.water, Initial residual = 0.000452404, Final residual = 3.77625e-09, No Iterations 6
Phase-1 volume fraction = 0.884724  Min(alpha.water) = -0.000676761  Max(alpha.water) = 1.00115
Applying the previous iteration compression flux
MULES: Correcting alpha.water
MULES: Correcting alpha.water
MULES: Correcting alpha.water
Phase-1 volume fraction = 0.884726  Min(alpha.water) = -0.000673429  Max(alpha.water) = 1.00115
GAMG:  Solving for p_rgh, Initial residual = 0.00189868, Final residual = 3.0227e-06, No Iterations 2
time step continuity errors : sum local = 0.000128948, global = 1.69836e-05, cumulative = -0.00349525
GAMG:  Solving for p_rgh, Initial residual = 2.23554e-05, Final residual = 8.67981e-08, No Iterations 3
time step continuity errors : sum local = 3.70077e-06, global = 1.10396e-06, cumulative = -0.00349414
smoothSolver:  Solving for omega, Initial residual = 0.00117937, Final residual = 6.57354e-05, No Iterations 1
smoothSolver:  Solving for k, Initial residual = 0.0291799, Final residual = 0.00220826, No Iterations 1
ExecutionTime = 35.94 s  ClockTime = 36 s

forces forces write:
    sum of forces:
        pressure : (0.00896543 -0.916347 0.671243)
        viscous  : (0.00563581 9.97829e-05 -2.46803e-05)
        porous   : (0 0 0)
    sum of moments:
        pressure : (-0.210006 1.96632 2.6913)
        viscous  : (1.98386e-05 -0.00146516 -0.000491601)
        porous   : (0 0 0)

Flow time scale min/max = 0.00787575, 1
Smoothed flow time scale min/max = 0.00787575, 0.212253
Damped flow time scale min/max = 0.00787575, 0.202146
Time = 0.12

PIMPLE: iteration 1
smoothSolver:  Solving for alpha.water, Initial residual = 0.000517207, Final residual = 3.04396e-09, No Iterations 7
Phase-1 volume fraction = 0.88469  Min(alpha.water) = -0.00048972  Max(alpha.water) = 1.00112
Applying the previous iteration compression flux
MULES: Correcting alpha.water
MULES: Correcting alpha.water
MULES: Correcting alpha.water
Phase-1 volume fraction = 0.884692  Min(alpha.water) = -0.00203694  Max(alpha.water) = 1.00112
GAMG:  Solving for p_rgh, Initial residual = 0.00213478, Final residual = 3.60118e-06, No Iterations 2
time step continuity errors : sum local = 0.000149077, global = 7.06321e-06, cumulative = -0.00348708
GAMG:  Solving for p_rgh, Initial residual = 2.41964e-05, Final residual = 2.90102e-08, No Iterations 4
time step continuity errors : sum local = 1.19977e-06, global = -2.87649e-08, cumulative = -0.00348711
smoothSolver:  Solving for omega, Initial residual = 0.00116557, Final residual = 8.317e-05, No Iterations 1
smoothSolver:  Solving for k, Initial residual = 0.0276833, Final residual = 0.00233537, No Iterations 1
ExecutionTime = 39.16 s  ClockTime = 39 s

forces forces write:
    sum of forces:
        pressure : (0.00900085 -0.915086 0.670355)
        viscous  : (0.00544988 9.4086e-05 -4.86713e-05)
        porous   : (0 0 0)
    sum of moments:
        pressure : (-0.209724 1.96375 2.68766)
        viscous  : (1.80312e-05 -0.00149685 -0.000467507)
        porous   : (0 0 0)

Flow time scale min/max = 0.00631855, 1
Smoothed flow time scale min/max = 0.00631855, 0.256376
Damped flow time scale min/max = 0.00631855, 0.158994
Time = 0.13

PIMPLE: iteration 1
smoothSolver:  Solving for alpha.water, Initial residual = 0.000480296, Final residual = 8.53743e-09, No Iterations 5
Phase-1 volume fraction = 0.884635  Min(alpha.water) = -0.00047747  Max(alpha.water) = 1.00109
Applying the previous iteration compression flux
MULES: Correcting alpha.water
MULES: Correcting alpha.water
MULES: Correcting alpha.water
Phase-1 volume fraction = 0.884636  Min(alpha.water) = -0.00133017  Max(alpha.water) = 1.00109
GAMG:  Solving for p_rgh, Initial residual = 0.00164351, Final residual = 2.94318e-06, No Iterations 2
time step continuity errors : sum local = 0.0001145, global = 5.42964e-06, cumulative = -0.00348168
GAMG:  Solving for p_rgh, Initial residual = 2.44929e-05, Final residual = 8.58049e-08, No Iterations 3
time step continuity errors : sum local = 3.3341e-06, global = 8.7358e-07, cumulative = -0.00348081
smoothSolver:  Solving for omega, Initial residual = 0.000889031, Final residual = 4.82705e-05, No Iterations 1
smoothSolver:  Solving for k, Initial residual = 0.022794, Final residual = 0.00162912, No Iterations 1
ExecutionTime = 42.36 s  ClockTime = 43 s

forces forces write:
    sum of forces:
        pressure : (0.00955105 -0.916622 0.670946)
        viscous  : (0.00530195 8.99298e-05 -6.32208e-05)
        porous   : (0 0 0)
    sum of moments:
        pressure : (-0.210068 1.96565 2.69273)
        viscous  : (1.67229e-05 -0.0015077 -0.000449409)
        porous   : (0 0 0)

Flow time scale min/max = 0.00295061, 1
Smoothed flow time scale min/max = 0.00295061, 0.35705
Damped flow time scale min/max = 0.00295061, 0.124834
Time = 0.14

PIMPLE: iteration 1
smoothSolver:  Solving for alpha.water, Initial residual = 0.00039814, Final residual = 2.24251e-09, No Iterations 5
Phase-1 volume fraction = 0.884623  Min(alpha.water) = -0.000459247  Max(alpha.water) = 1.00108
Applying the previous iteration compression flux
MULES: Correcting alpha.water
MULES: Correcting alpha.water
MULES: Correcting alpha.water
Phase-1 volume fraction = 0.884624  Min(alpha.water) = -0.000759018  Max(alpha.water) = 1.00108
GAMG:  Solving for p_rgh, Initial residual = 0.0016349, Final residual = 2.95383e-06, No Iterations 2
time step continuity errors : sum local = 0.000107462, global = 1.41406e-05, cumulative = -0.00346667
GAMG:  Solving for p_rgh, Initial residual = 2.19825e-05, Final residual = 4.77116e-08, No Iterations 3
time step continuity errors : sum local = 1.73513e-06, global = 5.3993e-07, cumulative = -0.00346613
smoothSolver:  Solving for omega, Initial residual = 0.000830077, Final residual = 4.38929e-05, No Iterations 1
smoothSolver:  Solving for k, Initial residual = 0.0180776, Final residual = 0.00111638, No Iterations 1
ExecutionTime = 46.09 s  ClockTime = 47 s

forces forces write:
    sum of forces:
        pressure : (0.00912212 -0.915959 0.671515)
        viscous  : (0.00514671 8.4196e-05 -7.6973e-05)
        porous   : (0 0 0)
    sum of moments:
        pressure : (-0.20993 1.96727 2.69044)
        viscous  : (1.51062e-05 -0.0015144 -0.000426394)
        porous   : (0 0 0)

Flow time scale min/max = 0.00779888, 1
Smoothed flow time scale min/max = 0.00779888, 0.30104
Damped flow time scale min/max = 0.00590122, 0.188531
Time = 0.15

PIMPLE: iteration 1
smoothSolver:  Solving for alpha.water, Initial residual = 0.000536558, Final residual = 4.54334e-09, No Iterations 6
Phase-1 volume fraction = 0.884614  Min(alpha.water) = -0.000235003  Max(alpha.water) = 1.00106
Applying the previous iteration compression flux
MULES: Correcting alpha.water
MULES: Correcting alpha.water
MULES: Correcting alpha.water
Phase-1 volume fraction = 0.884615  Min(alpha.water) = -0.000478751  Max(alpha.water) = 1.00335
GAMG:  Solving for p_rgh, Initial residual = 0.00206648, Final residual = 3.64778e-06, No Iterations 2
time step continuity errors : sum local = 0.0001593, global = 1.22872e-05, cumulative = -0.00345384
GAMG:  Solving for p_rgh, Initial residual = 2.52685e-05, Final residual = 9.76359e-08, No Iterations 3
time step continuity errors : sum local = 4.26221e-06, global = 1.46443e-06, cumulative = -0.00345237
smoothSolver:  Solving for omega, Initial residual = 0.00114701, Final residual = 7.72674e-05, No Iterations 1
smoothSolver:  Solving for k, Initial residual = 0.0269226, Final residual = 0.00240709, No Iterations 1
ExecutionTime = 49.6 s  ClockTime = 50 s

forces forces write:
    sum of forces:
        pressure : (0.00890545 -0.915908 0.671202)
        viscous  : (0.00501232 7.98787e-05 -8.76681e-05)
        porous   : (0 0 0)
    sum of moments:
        pressure : (-0.209941 1.96634 2.6901)
        viscous  : (1.39071e-05 -0.00151707 -0.00040813)
        porous   : (0 0 0)

Flow time scale min/max = 0.00284056, 1
Smoothed flow time scale min/max = 0.00284056, 0.115962
Damped flow time scale min/max = 0.00284056, 0.115962
Time = 0.16

PIMPLE: iteration 1
smoothSolver:  Solving for alpha.water, Initial residual = 0.000404459, Final residual = 1.97526e-09, No Iterations 5
Phase-1 volume fraction = 0.88458  Min(alpha.water) = -0.000143923  Max(alpha.water) = 1.00105
Applying the previous iteration compression flux
MULES: Correcting alpha.water
MULES: Correcting alpha.water
MULES: Correcting alpha.water
Phase-1 volume fraction = 0.884581  Min(alpha.water) = -0.000269496  Max(alpha.water) = 1.00105
GAMG:  Solving for p_rgh, Initial residual = 0.00197796, Final residual = 3.21125e-06, No Iterations 2
time step continuity errors : sum local = 0.000108586, global = 7.30032e-06, cumulative = -0.00344507
GAMG:  Solving for p_rgh, Initial residual = 2.10375e-05, Final residual = 7.93524e-08, No Iterations 3
time step continuity errors : sum local = 2.68075e-06, global = 2.84981e-07, cumulative = -0.00344479
smoothSolver:  Solving for omega, Initial residual = 0.000712226, Final residual = 3.21441e-05, No Iterations 1
smoothSolver:  Solving for k, Initial residual = 0.0147823, Final residual = 0.000796529, No Iterations 1
ExecutionTime = 53.25 s  ClockTime = 54 s

forces forces write:
    sum of forces:
        pressure : (0.00885579 -0.913927 0.669748)
        viscous  : (0.00489433 7.87301e-05 -9.55539e-05)
        porous   : (0 0 0)
    sum of moments:
        pressure : (-0.209499 1.96217 2.68435)
        viscous  : (1.34353e-05 -0.00151411 -0.000400257)
        porous   : (0 0 0)

Flow time scale min/max = 0.00510684, 1
Smoothed flow time scale min/max = 0.00510684, 0.281048
Damped flow time scale min/max = 0.00510684, 0.15927
Time = 0.17

PIMPLE: iteration 1
smoothSolver:  Solving for alpha.water, Initial residual = 0.000562042, Final residual = 6.80487e-09, No Iterations 5
Phase-1 volume fraction = 0.884553  Min(alpha.water) = -0.000166383  Max(alpha.water) = 1.00103
Applying the previous iteration compression flux
MULES: Correcting alpha.water
MULES: Correcting alpha.water
MULES: Correcting alpha.water
Phase-1 volume fraction = 0.884554  Min(alpha.water) = -0.000215842  Max(alpha.water) = 1.00103
GAMG:  Solving for p_rgh, Initial residual = 0.00199056, Final residual = 3.50207e-06, No Iterations 2
time step continuity errors : sum local = 0.000144384, global = 4.40262e-06, cumulative = -0.00344039
GAMG:  Solving for p_rgh, Initial residual = 2.49086e-05, Final residual = 6.27862e-08, No Iterations 3
time step continuity errors : sum local = 2.58714e-06, global = 1.39145e-07, cumulative = -0.00344025
smoothSolver:  Solving for omega, Initial residual = 0.00105921, Final residual = 6.01813e-05, No Iterations 1
smoothSolver:  Solving for k, Initial residual = 0.0230787, Final residual = 0.0018259, No Iterations 1
ExecutionTime = 57.09 s  ClockTime = 59 s

forces forces write:
    sum of forces:
        pressure : (0.0084434 -0.913764 0.670004)
        viscous  : (0.00477469 7.71408e-05 -0.000103835)
        porous   : (0 0 0)
    sum of moments:
        pressure : (-0.209487 1.96289 2.68354)
        viscous  : (1.28635e-05 -0.00151216 -0.000391062)
        porous   : (0 0 0)

Flow time scale min/max = 0.00507742, 1
Smoothed flow time scale min/max = 0.00507742, 0.153526
Damped flow time scale min/max = 0.00507742, 0.142226
Time = 0.18

PIMPLE: iteration 1
smoothSolver:  Solving for alpha.water, Initial residual = 0.000481187, Final residual = 4.79961e-09, No Iterations 5
Phase-1 volume fraction = 0.884533  Min(alpha.water) = -9.16739e-05  Max(alpha.water) = 1.001
Applying the previous iteration compression flux
MULES: Correcting alpha.water
MULES: Correcting alpha.water
MULES: Correcting alpha.water
Phase-1 volume fraction = 0.884533  Min(alpha.water) = -0.00265369  Max(alpha.water) = 1.001
GAMG:  Solving for p_rgh, Initial residual = 0.00195143, Final residual = 3.62984e-06, No Iterations 2
time step continuity errors : sum local = 0.000135768, global = 1.41577e-05, cumulative = -0.00342609
GAMG:  Solving for p_rgh, Initial residual = 2.49841e-05, Final residual = 7.02851e-08, No Iterations 3
time step continuity errors : sum local = 2.62748e-06, global = 1.13807e-06, cumulative = -0.00342495
smoothSolver:  Solving for omega, Initial residual = 0.000824655, Final residual = 4.82576e-05, No Iterations 1
smoothSolver:  Solving for k, Initial residual = 0.016669, Final residual = 0.00111657, No Iterations 1
ExecutionTime = 60.35 s  ClockTime = 62 s

forces forces write:
    sum of forces:
        pressure : (0.0079952 -0.91194 0.668536)
        viscous  : (0.00467086 7.74853e-05 -0.000109944)
        porous   : (0 0 0)
    sum of moments:
        pressure : (-0.209093 1.95858 2.67784)
        viscous  : (1.28262e-05 -0.00150683 -0.000388102)
        porous   : (0 0 0)

Flow time scale min/max = 0.004744, 1
Smoothed flow time scale min/max = 0.004744, 0.345915
Damped flow time scale min/max = 0.004744, 0.113815
Time = 0.19

PIMPLE: iteration 1
smoothSolver:  Solving for alpha.water, Initial residual = 0.000572632, Final residual = 2.98767e-09, No Iterations 5
Phase-1 volume fraction = 0.884515  Min(alpha.water) = -0.0014721  Max(alpha.water) = 1.00098
Applying the previous iteration compression flux
MULES: Correcting alpha.water
MULES: Correcting alpha.water
MULES: Correcting alpha.water
Phase-1 volume fraction = 0.884517  Min(alpha.water) = -0.00145465  Max(alpha.water) = 1.00098
GAMG:  Solving for p_rgh, Initial residual = 0.00205339, Final residual = 3.82761e-06, No Iterations 2
time step continuity errors : sum local = 0.000144552, global = 4.71946e-06, cumulative = -0.00342023
GAMG:  Solving for p_rgh, Initial residual = 2.42404e-05, Final residual = 4.652e-08, No Iterations 3
time step continuity errors : sum local = 1.75578e-06, global = -1.3373e-08, cumulative = -0.00342025
smoothSolver:  Solving for omega, Initial residual = 0.000841847, Final residual = 4.2784e-05, No Iterations 1
smoothSolver:  Solving for k, Initial residual = 0.0185344, Final residual = 0.00141253, No Iterations 1
ExecutionTime = 63.72 s  ClockTime = 66 s

forces forces write:
    sum of forces:
        pressure : (0.00771027 -0.911457 0.669126)
        viscous  : (0.00458082 7.62358e-05 -0.000111546)
        porous   : (0 0 0)
    sum of moments:
        pressure : (-0.208999 1.9603 2.67622)
        viscous  : (1.2543e-05 -0.00149146 -0.000381247)
        porous   : (0 0 0)

Flow time scale min/max = 0.00520957, 1
Smoothed flow time scale min/max = 0.00520957, 0.268546
Damped flow time scale min/max = 0.00520957, 0.136171
Time = 0.2

PIMPLE: iteration 1
smoothSolver:  Solving for alpha.water, Initial residual = 0.000528316, Final residual = 2.52491e-09, No Iterations 5
Phase-1 volume fraction = 0.884503  Min(alpha.water) = -0.0011806  Max(alpha.water) = 1.00096
Applying the previous iteration compression flux
MULES: Correcting alpha.water
MULES: Correcting alpha.water
MULES: Correcting alpha.water
Phase-1 volume fraction = 0.884505  Min(alpha.water) = -0.00115188  Max(alpha.water) = 1.00096
GAMG:  Solving for p_rgh, Initial residual = 0.00167263, Final residual = 2.807e-06, No Iterations 2
time step continuity errors : sum local = 0.000104379, global = 8.43779e-06, cumulative = -0.00341181
GAMG:  Solving for p_rgh, Initial residual = 2.30467e-05, Final residual = 7.51139e-08, No Iterations 3
time step continuity errors : sum local = 2.79202e-06, global = 9.25276e-07, cumulative = -0.00341088
smoothSolver:  Solving for omega, Initial residual = 0.000820716, Final residual = 4.4169e-05, No Iterations 1
smoothSolver:  Solving for k, Initial residual = 0.0165866, Final residual = 0.0012457, No Iterations 1
ExecutionTime = 66.91 s  ClockTime = 69 s

forces forces write:
    sum of forces:
        pressure : (0.00760585 -0.909729 0.667779)
        viscous  : (0.00449716 7.60342e-05 -0.000114499)
        porous   : (0 0 0)
    sum of moments:
        pressure : (-0.20862 1.95645 2.67116)
        viscous  : (1.24688e-05 -0.00148083 -0.00037758)
        porous   : (0 0 0)

Flow time scale min/max = 0.00520381, 1
Smoothed flow time scale min/max = 0.00520381, 0.225138
Damped flow time scale min/max = 0.00520381, 0.136044
Time = 0.21

PIMPLE: iteration 1
smoothSolver:  Solving for alpha.water, Initial residual = 0.000551242, Final residual = 8.24908e-09, No Iterations 5
Phase-1 volume fraction = 0.884484  Min(alpha.water) = -0.000782709  Max(alpha.water) = 1.00092
Applying the previous iteration compression flux
MULES: Correcting alpha.water
MULES: Correcting alpha.water
MULES: Correcting alpha.water
Phase-1 volume fraction = 0.884485  Min(alpha.water) = -0.00480255  Max(alpha.water) = 1.00092
GAMG:  Solving for p_rgh, Initial residual = 0.00194549, Final residual = 3.61689e-06, No Iterations 2
time step continuity errors : sum local = 0.000148834, global = 9.10318e-06, cumulative = -0.00340178
GAMG:  Solving for p_rgh, Initial residual = 2.81548e-05, Final residual = 5.42233e-08, No Iterations 3
time step continuity errors : sum local = 2.22974e-06, global = 1.40992e-07, cumulative = -0.00340164
smoothSolver:  Solving for omega, Initial residual = 0.000923196, Final residual = 6.07903e-05, No Iterations 1
smoothSolver:  Solving for k, Initial residual = 0.0196456, Final residual = 0.00180702, No Iterations 1
ExecutionTime = 70.2 s  ClockTime = 72 s

forces forces write:
    sum of forces:
        pressure : (0.00688795 -0.908212 0.667061)
        viscous  : (0.0044035 7.74173e-05 -0.000112972)
        porous   : (0 0 0)
    sum of moments:
        pressure : (-0.208315 1.95427 2.66612)
        viscous  : (1.29105e-05 -0.00145442 -0.000378089)
        porous   : (0 0 0)

Flow time scale min/max = 0.00200808, 1
Smoothed flow time scale min/max = 0.00200808, 0.355484
Damped flow time scale min/max = 0.00200808, 0.137669
Time = 0.22

PIMPLE: iteration 1
smoothSolver:  Solving for alpha.water, Initial residual = 0.000381348, Final residual = 2.89065e-09, No Iterations 5
Phase-1 volume fraction = 0.884463  Min(alpha.water) = -0.00282356  Max(alpha.water) = 1.00092
Applying the previous iteration compression flux
MULES: Correcting alpha.water
MULES: Correcting alpha.water
MULES: Correcting alpha.water
Phase-1 volume fraction = 0.884464  Min(alpha.water) = -0.00258362  Max(alpha.water) = 1.00092
GAMG:  Solving for p_rgh, Initial residual = 0.00187452, Final residual = 3.08197e-06, No Iterations 2
time step continuity errors : sum local = 0.000114191, global = 4.42218e-06, cumulative = -0.00339722
GAMG:  Solving for p_rgh, Initial residual = 2.24703e-05, Final residual = 5.78329e-08, No Iterations 3
time step continuity errors : sum local = 2.14117e-06, global = -1.32292e-07, cumulative = -0.00339735
smoothSolver:  Solving for omega, Initial residual = 0.000673295, Final residual = 3.86812e-05, No Iterations 1
smoothSolver:  Solving for k, Initial residual = 0.0116012, Final residual = 0.000802694, No Iterations 1
ExecutionTime = 73.38 s  ClockTime = 75 s

forces forces write:
    sum of forces:
        pressure : (0.00640345 -0.905106 0.665033)
        viscous  : (0.00430898 8.00847e-05 -0.000111271)
        porous   : (0 0 0)
    sum of moments:
        pressure : (-0.207635 1.94832 2.65664)
        viscous  : (1.3693e-05 -0.00142674 -0.00038231)
        porous   : (0 0 0)

Flow time scale min/max = 0.0147521, 1
Smoothed flow time scale min/max = 0.0147521, 0.330533
Damped flow time scale min/max = 0.00401617, 0.187153
Time = 0.23

PIMPLE: iteration 1
smoothSolver:  Solving for alpha.water, Initial residual = 0.0006643, Final residual = 8.39383e-09, No Iterations 6
Phase-1 volume fraction = 0.884437  Min(alpha.water) = -0.00122257  Max(alpha.water) = 1.00091
Applying the previous iteration compression flux
MULES: Correcting alpha.water
MULES: Correcting alpha.water
MULES: Correcting alpha.water
Phase-1 volume fraction = 0.884439  Min(alpha.water) = -0.00122257  Max(alpha.water) = 1.0009
GAMG:  Solving for p_rgh, Initial residual = 0.00252876, Final residual = 3.98787e-06, No Iterations 2
time step continuity errors : sum local = 0.000171837, global = 7.98196e-06, cumulative = -0.00338937
GAMG:  Solving for p_rgh, Initial residual = 2.64199e-05, Final residual = 2.19191e-08, No Iterations 4
time step continuity errors : sum local = 9.4343e-07, global = 3.44182e-07, cumulative = -0.00338902
smoothSolver:  Solving for omega, Initial residual = 0.00094809, Final residual = 6.39009e-05, No Iterations 1
smoothSolver:  Solving for k, Initial residual = 0.0196878, Final residual = 0.00069306, No Iterations 2
ExecutionTime = 77.18 s  ClockTime = 79 s

forces forces write:
    sum of forces:
        pressure : (0.00593477 -0.905118 0.665434)
        viscous  : (0.00423192 8.11534e-05 -0.000106385)
        porous   : (0 0 0)
    sum of moments:
        pressure : (-0.207647 1.9495 2.65632)
        viscous  : (1.42326e-05 -0.00139338 -0.000382762)
        porous   : (0 0 0)

Flow time scale min/max = 0.00408666, 1
Smoothed flow time scale min/max = 0.00408666, 0.12128
Damped flow time scale min/max = 0.00408666, 0.12128
Time = 0.24

PIMPLE: iteration 1
smoothSolver:  Solving for alpha.water, Initial residual = 0.000504168, Final residual = 1.35483e-09, No Iterations 5
Phase-1 volume fraction = 0.88444  Min(alpha.water) = -0.000485529  Max(alpha.water) = 1.00088
Applying the previous iteration compression flux
MULES: Correcting alpha.water
MULES: Correcting alpha.water
MULES: Correcting alpha.water
Phase-1 volume fraction = 0.884441  Min(alpha.water) = -0.00258728  Max(alpha.water) = 1.00088
GAMG:  Solving for p_rgh, Initial residual = 0.00194361, Final residual = 3.61007e-06, No Iterations 2
time step continuity errors : sum local = 0.000119268, global = 1.17736e-05, cumulative = -0.00337725
GAMG:  Solving for p_rgh, Initial residual = 2.3496e-05, Final residual = 4.91504e-08, No Iterations 3
time step continuity errors : sum local = 1.62304e-06, global = 1.23901e-07, cumulative = -0.00337712
smoothSolver:  Solving for omega, Initial residual = 0.000632217, Final residual = 3.69331e-05, No Iterations 1
smoothSolver:  Solving for k, Initial residual = 0.0105143, Final residual = 0.000657785, No Iterations 1
ExecutionTime = 80.54 s  ClockTime = 83 s

forces forces write:
    sum of forces:
        pressure : (0.00551928 -0.903231 0.664052)
        viscous  : (0.00414906 8.49813e-05 -9.55649e-05)
        porous   : (0 0 0)
    sum of moments:
        pressure : (-0.20726 1.94544 2.65048)
        viscous  : (1.56377e-05 -0.00134055 -0.000391283)
        porous   : (0 0 0)

Flow time scale min/max = 0.00310808, 1
Smoothed flow time scale min/max = 0.00310808, 0.240876
Damped flow time scale min/max = 0.00310808, 0.17686
Time = 0.25

PIMPLE: iteration 1
smoothSolver:  Solving for alpha.water, Initial residual = 0.000426138, Final residual = 3.57525e-09, No Iterations 5
Phase-1 volume fraction = 0.884438  Min(alpha.water) = -0.00142714  Max(alpha.water) = 1.00087
Applying the previous iteration compression flux
MULES: Correcting alpha.water
MULES: Correcting alpha.water
MULES: Correcting alpha.water
Phase-1 volume fraction = 0.88444  Min(alpha.water) = -0.000614736  Max(alpha.water) = 1.00087
GAMG:  Solving for p_rgh, Initial residual = 0.00170973, Final residual = 2.73845e-06, No Iterations 2
time step continuity errors : sum local = 9.65739e-05, global = 6.52428e-06, cumulative = -0.0033706
GAMG:  Solving for p_rgh, Initial residual = 2.20381e-05, Final residual = 5.81098e-08, No Iterations 3
time step continuity errors : sum local = 2.04877e-06, global = 4.12022e-07, cumulative = -0.00337019
smoothSolver:  Solving for omega, Initial residual = 0.000647078, Final residual = 3.41147e-05, No Iterations 1
smoothSolver:  Solving for k, Initial residual = 0.0111245, Final residual = 0.000905888, No Iterations 1
ExecutionTime = 83.91 s  ClockTime = 87 s

forces forces write:
    sum of forces:
        pressure : (0.00525138 -0.901237 0.662673)
        viscous  : (0.00409164 8.6158e-05 -9.06649e-05)
        porous   : (0 0 0)
    sum of moments:
        pressure : (-0.206808 1.94146 2.64448)
        viscous  : (1.62172e-05 -0.00131044 -0.000392975)
        porous   : (0 0 0)

Flow time scale min/max = 0.00789108, 1
Smoothed flow time scale min/max = 0.00789108, 0.219778
Damped flow time scale min/max = 0.00621615, 0.126876
Time = 0.26

PIMPLE: iteration 1
smoothSolver:  Solving for alpha.water, Initial residual = 0.000589954, Final residual = 6.48427e-09, No Iterations 5
Phase-1 volume fraction = 0.884423  Min(alpha.water) = -0.00029716  Max(alpha.water) = 1.00086
Applying the previous iteration compression flux
MULES: Correcting alpha.water
MULES: Correcting alpha.water
MULES: Correcting alpha.water
Phase-1 volume fraction = 0.884425  Min(alpha.water) = -0.000169504  Max(alpha.water) = 1.00086
GAMG:  Solving for p_rgh, Initial residual = 0.00179056, Final residual = 3.21185e-06, No Iterations 2
time step continuity errors : sum local = 0.000129729, global = 1.1955e-05, cumulative = -0.00335823
GAMG:  Solving for p_rgh, Initial residual = 2.57203e-05, Final residual = 5.70184e-08, No Iterations 3
time step continuity errors : sum local = 2.30182e-06, global = 6.15543e-07, cumulative = -0.00335762
smoothSolver:  Solving for omega, Initial residual = 0.000876102, Final residual = 5.85282e-05, No Iterations 1
smoothSolver:  Solving for k, Initial residual = 0.0160564, Final residual = 0.00148556, No Iterations 1
ExecutionTime = 87.01 s  ClockTime = 90 s

forces forces write:
    sum of forces:
        pressure : (0.00472528 -0.901743 0.663526)
        viscous  : (0.00402422 9.26571e-05 -7.71737e-05)
        porous   : (0 0 0)
    sum of moments:
        pressure : (-0.206946 1.94389 2.64551)
        viscous  : (1.82316e-05 -0.00125267 -0.000409774)
        porous   : (0 0 0)

Flow time scale min/max = 0.0040911, 1
Smoothed flow time scale min/max = 0.0040911, 0.185058
Damped flow time scale min/max = 0.0040911, 0.137236
Time = 0.27

PIMPLE: iteration 1
smoothSolver:  Solving for alpha.water, Initial residual = 0.000530736, Final residual = 3.54152e-09, No Iterations 5
Phase-1 volume fraction = 0.884399  Min(alpha.water) = -0.000120576  Max(alpha.water) = 1.00084
Applying the previous iteration compression flux
MULES: Correcting alpha.water
MULES: Correcting alpha.water
MULES: Correcting alpha.water
Phase-1 volume fraction = 0.8844  Min(alpha.water) = -0.000114732  Max(alpha.water) = 1.00084
GAMG:  Solving for p_rgh, Initial residual = 0.00163451, Final residual = 2.64699e-06, No Iterations 2
time step continuity errors : sum local = 9.78146e-05, global = 6.71444e-06, cumulative = -0.0033509
GAMG:  Solving for p_rgh, Initial residual = 2.26326e-05, Final residual = 5.67049e-08, No Iterations 3
time step continuity errors : sum local = 2.09409e-06, global = 4.49682e-07, cumulative = -0.00335045
smoothSolver:  Solving for omega, Initial residual = 0.000685334, Final residual = 2.92726e-05, No Iterations 1
smoothSolver:  Solving for k, Initial residual = 0.0120549, Final residual = 0.000781756, No Iterations 1
ExecutionTime = 90.81 s  ClockTime = 94 s

forces forces write:
    sum of forces:
        pressure : (0.00454979 -0.902011 0.663748)
        viscous  : (0.00397389 9.79684e-05 -6.94027e-05)
        porous   : (0 0 0)
    sum of moments:
        pressure : (-0.207017 1.94456 2.64617)
        viscous  : (1.97771e-05 -0.00121661 -0.000423624)
        porous   : (0 0 0)

Flow time scale min/max = 0.00616186, 1
Smoothed flow time scale min/max = 0.00616186, 0.218163
Damped flow time scale min/max = 0.00616186, 0.173032
Time = 0.28

PIMPLE: iteration 1
smoothSolver:  Solving for alpha.water, Initial residual = 0.000609598, Final residual = 2.7019e-09, No Iterations 6
Phase-1 volume fraction = 0.884399  Min(alpha.water) = -9.07933e-05  Max(alpha.water) = 1.00082
Applying the previous iteration compression flux
MULES: Correcting alpha.water
MULES: Correcting alpha.water
MULES: Correcting alpha.water
Phase-1 volume fraction = 0.884401  Min(alpha.water) = -0.000468274  Max(alpha.water) = 1.00082
GAMG:  Solving for p_rgh, Initial residual = 0.00199958, Final residual = 3.67771e-06, No Iterations 2
time step continuity errors : sum local = 0.000146129, global = 1.09358e-05, cumulative = -0.00333952
GAMG:  Solving for p_rgh, Initial residual = 2.56471e-05, Final residual = 4.72654e-08, No Iterations 3
time step continuity errors : sum local = 1.8773e-06, global = 1.40395e-07, cumulative = -0.00333938
smoothSolver:  Solving for omega, Initial residual = 0.000804037, Final residual = 4.88286e-05, No Iterations 1
smoothSolver:  Solving for k, Initial residual = 0.0155947, Final residual = 0.000497405, No Iterations 2
ExecutionTime = 94.89 s  ClockTime = 98 s

forces forces write:
    sum of forces:
        pressure : (0.00424374 -0.900967 0.662907)
        viscous  : (0.00392385 0.000104826 -6.05953e-05)
        porous   : (0 0 0)
    sum of moments:
        pressure : (-0.206794 1.94208 2.64286)
        viscous  : (2.16985e-05 -0.00117738 -0.000442134)
        porous   : (0 0 0)

Flow time scale min/max = 0.00424776, 1
Smoothed flow time scale min/max = 0.00424776, 0.179396
Damped flow time scale min/max = 0.00424776, 0.138073
Time = 0.29

PIMPLE: iteration 1
smoothSolver:  Solving for alpha.water, Initial residual = 0.000512096, Final residual = 6.81328e-09, No Iterations 5
Phase-1 volume fraction = 0.88438  Min(alpha.water) = -0.000289747  Max(alpha.water) = 1.0008
Applying the previous iteration compression flux
MULES: Correcting alpha.water
MULES: Correcting alpha.water
MULES: Correcting alpha.water
Phase-1 volume fraction = 0.884381  Min(alpha.water) = -0.000354351  Max(alpha.water) = 1.0008
GAMG:  Solving for p_rgh, Initial residual = 0.00224817, Final residual = 3.81441e-06, No Iterations 2
time step continuity errors : sum local = 0.000140514, global = 1.11759e-05, cumulative = -0.0033282
GAMG:  Solving for p_rgh, Initial residual = 2.59144e-05, Final residual = 5.71636e-08, No Iterations 3
time step continuity errors : sum local = 2.10408e-06, global = 1.87857e-07, cumulative = -0.00332801
smoothSolver:  Solving for omega, Initial residual = 0.000650133, Final residual = 3.57657e-05, No Iterations 1
smoothSolver:  Solving for k, Initial residual = 0.0115677, Final residual = 0.000944153, No Iterations 1
ExecutionTime = 98.95 s  ClockTime = 103 s

forces forces write:
    sum of forces:
        pressure : (0.00392545 -0.897856 0.660436)
        viscous  : (0.0038772 0.000110622 -5.47344e-05)
        porous   : (0 0 0)
    sum of moments:
        pressure : (-0.20611 1.93481 2.63349)
        viscous  : (2.32659e-05 -0.0011478 -0.000457767)
        porous   : (0 0 0)

Flow time scale min/max = 0.00304322, 1
Smoothed flow time scale min/max = 0.00304322, 0.18896
Damped flow time scale min/max = 0.00304322, 0.140996
Time = 0.3

PIMPLE: iteration 1
smoothSolver:  Solving for alpha.water, Initial residual = 0.000353181, Final residual = 1.38747e-09, No Iterations 5
Phase-1 volume fraction = 0.884387  Min(alpha.water) = -0.000295294  Max(alpha.water) = 1.0008
Applying the previous iteration compression flux
MULES: Correcting alpha.water
MULES: Correcting alpha.water
MULES: Correcting alpha.water
Phase-1 volume fraction = 0.884388  Min(alpha.water) = -0.000286299  Max(alpha.water) = 1.0008
GAMG:  Solving for p_rgh, Initial residual = 0.00169117, Final residual = 2.97738e-06, No Iterations 2
time step continuity errors : sum local = 8.77263e-05, global = 1.55122e-05, cumulative = -0.0033125
GAMG:  Solving for p_rgh, Initial residual = 2.2286e-05, Final residual = 5.06501e-08, No Iterations 3
time step continuity errors : sum local = 1.49249e-06, global = -7.30299e-08, cumulative = -0.00331257
smoothSolver:  Solving for omega, Initial residual = 0.000430174, Final residual = 1.92524e-05, No Iterations 1
smoothSolver:  Solving for k, Initial residual = 0.00729789, Final residual = 0.000592212, No Iterations 1
ExecutionTime = 102.87 s  ClockTime = 107 s

forces forces write:
    sum of forces:
        pressure : (0.00394769 -0.898917 0.661119)
        viscous  : (0.00384765 0.000113793 -5.31398e-05)
        porous   : (0 0 0)
    sum of moments:
        pressure : (-0.206343 1.9369 2.63666)
        viscous  : (2.40986e-05 -0.00113482 -0.000466225)
        porous   : (0 0 0)

Flow time scale min/max = 0.00746314, 1
Smoothed flow time scale min/max = 0.00746314, 0.304199
Damped flow time scale min/max = 0.00608645, 0.121162
Time = 0.31

PIMPLE: iteration 1
smoothSolver:  Solving for alpha.water, Initial residual = 0.000562302, Final residual = 1.26284e-09, No Iterations 5
Phase-1 volume fraction = 0.884394  Min(alpha.water) = -0.000161857  Max(alpha.water) = 1.00079
Applying the previous iteration compression flux
MULES: Correcting alpha.water
MULES: Correcting alpha.water
MULES: Correcting alpha.water
Phase-1 volume fraction = 0.884396  Min(alpha.water) = -0.000414593  Max(alpha.water) = 1.00079
GAMG:  Solving for p_rgh, Initial residual = 0.00152045, Final residual = 2.70098e-06, No Iterations 2
time step continuity errors : sum local = 9.18188e-05, global = 1.80024e-05, cumulative = -0.00329457
GAMG:  Solving for p_rgh, Initial residual = 2.3803e-05, Final residual = 3.96261e-08, No Iterations 3
time step continuity errors : sum local = 1.34694e-06, global = 1.38558e-07, cumulative = -0.00329443
smoothSolver:  Solving for omega, Initial residual = 0.00061038, Final residual = 2.73585e-05, No Iterations 1
smoothSolver:  Solving for k, Initial residual = 0.0111076, Final residual = 0.000981036, No Iterations 1
ExecutionTime = 106.39 s  ClockTime = 110 s

forces forces write:
    sum of forces:
        pressure : (0.00363751 -0.900844 0.662522)
        viscous  : (0.00381695 0.000118174 -4.90235e-05)
        porous   : (0 0 0)
    sum of moments:
        pressure : (-0.206788 1.94097 2.64202)
        viscous  : (2.52773e-05 -0.0011143 -0.000478216)
        porous   : (0 0 0)

Flow time scale min/max = 0.00436439, 1
Smoothed flow time scale min/max = 0.00436439, 0.250401
Damped flow time scale min/max = 0.00436439, 0.183169
Time = 0.32

PIMPLE: iteration 1
smoothSolver:  Solving for alpha.water, Initial residual = 0.000580413, Final residual = 4.44023e-09, No Iterations 6
Phase-1 volume fraction = 0.884396  Min(alpha.water) = -0.000123822  Max(alpha.water) = 1.00079
Applying the previous iteration compression flux
MULES: Correcting alpha.water
MULES: Correcting alpha.water
MULES: Correcting alpha.water
Phase-1 volume fraction = 0.884398  Min(alpha.water) = -0.000439662  Max(alpha.water) = 1.00079
GAMG:  Solving for p_rgh, Initial residual = 0.00188298, Final residual = 3.3065e-06, No Iterations 2
time step continuity errors : sum local = 0.000130129, global = 1.04622e-05, cumulative = -0.00328397
GAMG:  Solving for p_rgh, Initial residual = 2.66745e-05, Final residual = 5.00402e-08, No Iterations 3
time step continuity errors : sum local = 1.96884e-06, global = 2.84018e-07, cumulative = -0.00328369
smoothSolver:  Solving for omega, Initial residual = 0.000701226, Final residual = 4.32851e-05, No Iterations 1
smoothSolver:  Solving for k, Initial residual = 0.0133743, Final residual = 0.000632486, No Iterations 2
ExecutionTime = 110.25 s  ClockTime = 114 s

forces forces write:
    sum of forces:
        pressure : (0.00346909 -0.899957 0.661851)
        viscous  : (0.00378633 0.000122904 -4.50818e-05)
        porous   : (0 0 0)
    sum of moments:
        pressure : (-0.206588 1.939 2.63929)
        viscous  : (2.65174e-05 -0.00109425 -0.000491212)
        porous   : (0 0 0)

Flow time scale min/max = 0.0058888, 1
Smoothed flow time scale min/max = 0.0058888, 0.135769
Damped flow time scale min/max = 0.0058888, 0.122023
Time = 0.33

PIMPLE: iteration 1
smoothSolver:  Solving for alpha.water, Initial residual = 0.000471819, Final residual = 1.99487e-09, No Iterations 5
Phase-1 volume fraction = 0.884369  Min(alpha.water) = -0.000177544  Max(alpha.water) = 1.00078
Applying the previous iteration compression flux
MULES: Correcting alpha.water
MULES: Correcting alpha.water
MULES: Correcting alpha.water
Phase-1 volume fraction = 0.88437  Min(alpha.water) = -0.000189798  Max(alpha.water) = 1.00078
GAMG:  Solving for p_rgh, Initial residual = 0.00146743, Final residual = 2.49897e-06, No Iterations 2
time step continuity errors : sum local = 8.07062e-05, global = 2.7257e-06, cumulative = -0.00328096
GAMG:  Solving for p_rgh, Initial residual = 2.21132e-05, Final residual = 4.20829e-08, No Iterations 3
time step continuity errors : sum local = 1.35817e-06, global = -3.05595e-08, cumulative = -0.00328099
smoothSolver:  Solving for omega, Initial residual = 0.000546184, Final residual = 2.08112e-05, No Iterations 1
smoothSolver:  Solving for k, Initial residual = 0.00917774, Final residual = 0.000652456, No Iterations 1
ExecutionTime = 113.71 s  ClockTime = 118 s

forces forces write:
    sum of forces:
        pressure : (0.00323573 -0.900147 0.661921)
        viscous  : (0.00375707 0.000127175 -4.08272e-05)
        porous   : (0 0 0)
    sum of moments:
        pressure : (-0.206636 1.93918 2.63964)
        viscous  : (2.7698e-05 -0.00107359 -0.000503038)
        porous   : (0 0 0)

Flow time scale min/max = 0.00436733, 1
Smoothed flow time scale min/max = 0.00436733, 0.245118
Damped flow time scale min/max = 0.00436733, 0.157497
Time = 0.34

PIMPLE: iteration 1
smoothSolver:  Solving for alpha.water, Initial residual = 0.000483698, Final residual = 2.16488e-09, No Iterations 6
Phase-1 volume fraction = 0.884339  Min(alpha.water) = -9.47665e-06  Max(alpha.water) = 1.00078
Applying the previous iteration compression flux
MULES: Correcting alpha.water
MULES: Correcting alpha.water
MULES: Correcting alpha.water
Phase-1 volume fraction = 0.884341  Min(alpha.water) = -0.000193034  Max(alpha.water) = 1.00078
GAMG:  Solving for p_rgh, Initial residual = 0.00172972, Final residual = 2.58239e-06, No Iterations 2
time step continuity errors : sum local = 9.96554e-05, global = 5.05518e-06, cumulative = -0.00327594
GAMG:  Solving for p_rgh, Initial residual = 2.48189e-05, Final residual = 2.99398e-08, No Iterations 4
time step continuity errors : sum local = 1.15451e-06, global = -3.84914e-08, cumulative = -0.00327598
smoothSolver:  Solving for omega, Initial residual = 0.000659808, Final residual = 3.49323e-05, No Iterations 1
smoothSolver:  Solving for k, Initial residual = 0.0116964, Final residual = 0.000460521, No Iterations 2
ExecutionTime = 117.01 s  ClockTime = 122 s

forces forces write:
    sum of forces:
        pressure : (0.00307791 -0.899949 0.661716)
        viscous  : (0.00372967 0.000131407 -3.73203e-05)
        porous   : (0 0 0)
    sum of moments:
        pressure : (-0.206593 1.93859 2.63894)
        viscous  : (2.88311e-05 -0.00105561 -0.000514707)
        porous   : (0 0 0)

Flow time scale min/max = 0.00666333, 1
Smoothed flow time scale min/max = 0.00666333, 0.218587
Damped flow time scale min/max = 0.00666333, 0.179622
Time = 0.35

PIMPLE: iteration 1
smoothSolver:  Solving for alpha.water, Initial residual = 0.000555804, Final residual = 2.23347e-09, No Iterations 6
Phase-1 volume fraction = 0.884358  Min(alpha.water) = -5.79398e-05  Max(alpha.water) = 1.00077
Applying the previous iteration compression flux
MULES: Correcting alpha.water
MULES: Correcting alpha.water
MULES: Correcting alpha.water
Phase-1 volume fraction = 0.884359  Min(alpha.water) = -0.00178415  Max(alpha.water) = 1.00077
GAMG:  Solving for p_rgh, Initial residual = 0.00181068, Final residual = 3.01226e-06, No Iterations 2
time step continuity errors : sum local = 0.000116318, global = 2.29125e-05, cumulative = -0.00325306
GAMG:  Solving for p_rgh, Initial residual = 2.63662e-05, Final residual = 5.26073e-08, No Iterations 3
time step continuity errors : sum local = 2.03139e-06, global = 9.27725e-07, cumulative = -0.00325214
smoothSolver:  Solving for omega, Initial residual = 0.000646177, Final residual = 3.69222e-05, No Iterations 1
smoothSolver:  Solving for k, Initial residual = 0.0113248, Final residual = 0.000407499, No Iterations 2
ExecutionTime = 120.3 s  ClockTime = 125 s

forces forces write:
    sum of forces:
        pressure : (0.00295735 -0.899737 0.661461)
        viscous  : (0.00370488 0.000135213 -3.46062e-05)
        porous   : (0 0 0)
    sum of moments:
        pressure : (-0.206547 1.93785 2.63823)
        viscous  : (2.98431e-05 -0.00104057 -0.000525245)
        porous   : (0 0 0)

Flow time scale min/max = 0.00581786, 1
Smoothed flow time scale min/max = 0.00581786, 0.194794
Damped flow time scale min/max = 0.00581786, 0.189329
Time = 0.36

PIMPLE: iteration 1
smoothSolver:  Solving for alpha.water, Initial residual = 0.000590278, Final residual = 5.5571e-09, No Iterations 5
Phase-1 volume fraction = 0.884351  Min(alpha.water) = -0.000882127  Max(alpha.water) = 1.00076
Applying the previous iteration compression flux
MULES: Correcting alpha.water
MULES: Correcting alpha.water
MULES: Correcting alpha.water
Phase-1 volume fraction = 0.884352  Min(alpha.water) = -0.000581061  Max(alpha.water) = 1.00076
GAMG:  Solving for p_rgh, Initial residual = 0.00188624, Final residual = 3.0055e-06, No Iterations 2
time step continuity errors : sum local = 0.00011088, global = 8.91116e-06, cumulative = -0.00324322
GAMG:  Solving for p_rgh, Initial residual = 2.48352e-05, Final residual = 8.95538e-08, No Iterations 3
time step continuity errors : sum local = 3.30213e-06, global = 8.28344e-07, cumulative = -0.0032424
smoothSolver:  Solving for omega, Initial residual = 0.000592787, Final residual = 3.12034e-05, No Iterations 1
smoothSolver:  Solving for k, Initial residual = 0.0101257, Final residual = 0.000341939, No Iterations 2
ExecutionTime = 123.82 s  ClockTime = 129 s

forces forces write:
    sum of forces:
        pressure : (0.00272513 -0.899931 0.66159)
        viscous  : (0.00368124 0.000139428 -3.13232e-05)
        porous   : (0 0 0)
    sum of moments:
        pressure : (-0.206593 1.9382 2.63858)
        viscous  : (3.09455e-05 -0.00102426 -0.000536949)
        porous   : (0 0 0)

Flow time scale min/max = 0.00394925, 1
Smoothed flow time scale min/max = 0.00394925, 0.115589
Damped flow time scale min/max = 0.00394925, 0.115589
Time = 0.37

PIMPLE: iteration 1
smoothSolver:  Solving for alpha.water, Initial residual = 0.000466071, Final residual = 5.34931e-09, No Iterations 5
Phase-1 volume fraction = 0.884374  Min(alpha.water) = -0.000214635  Max(alpha.water) = 1.00076
Applying the previous iteration compression flux
MULES: Correcting alpha.water
MULES: Correcting alpha.water
MULES: Correcting alpha.water
Phase-1 volume fraction = 0.884376  Min(alpha.water) = -0.0040015  Max(alpha.water) = 1.00076
GAMG:  Solving for p_rgh, Initial residual = 0.00176063, Final residual = 2.97301e-06, No Iterations 2
time step continuity errors : sum local = 9.90026e-05, global = 2.28416e-05, cumulative = -0.00321955
GAMG:  Solving for p_rgh, Initial residual = 2.56854e-05, Final residual = 3.8341e-08, No Iterations 3
time step continuity errors : sum local = 1.27681e-06, global = 2.11568e-07, cumulative = -0.00321934
smoothSolver:  Solving for omega, Initial residual = 0.000492824, Final residual = 2.80564e-05, No Iterations 1
smoothSolver:  Solving for k, Initial residual = 0.00803704, Final residual = 0.000349438, No Iterations 2
ExecutionTime = 127.11 s  ClockTime = 133 s

forces forces write:
    sum of forces:
        pressure : (0.00260144 -0.89957 0.661254)
        viscous  : (0.00365805 0.000143111 -2.83338e-05)
        porous   : (0 0 0)
    sum of moments:
        pressure : (-0.206514 1.93722 2.63743)
        viscous  : (3.19333e-05 -0.0010089 -0.000547192)
        porous   : (0 0 0)

Flow time scale min/max = 0.00682413, 1
Smoothed flow time scale min/max = 0.00682413, 0.294184
Damped flow time scale min/max = 0.00682413, 0.15647
Time = 0.38

PIMPLE: iteration 1
smoothSolver:  Solving for alpha.water, Initial residual = 0.000632107, Final residual = 2.98302e-09, No Iterations 6
Phase-1 volume fraction = 0.884394  Min(alpha.water) = -0.00158382  Max(alpha.water) = 1.00075
Applying the previous iteration compression flux
MULES: Correcting alpha.water
MULES: Correcting alpha.water
MULES: Correcting alpha.water
Phase-1 volume fraction = 0.884396  Min(alpha.water) = -0.000867783  Max(alpha.water) = 1.00075
GAMG:  Solving for p_rgh, Initial residual = 0.00201757, Final residual = 3.46773e-06, No Iterations 2
time step continuity errors : sum local = 0.000135073, global = 1.87259e-05, cumulative = -0.00320062
GAMG:  Solving for p_rgh, Initial residual = 2.89996e-05, Final residual = 4.74727e-08, No Iterations 3
time step continuity errors : sum local = 1.84919e-06, global = 3.06079e-07, cumulative = -0.00320031
smoothSolver:  Solving for omega, Initial residual = 0.000660753, Final residual = 4.34258e-05, No Iterations 1
smoothSolver:  Solving for k, Initial residual = 0.0114853, Final residual = 0.000612564, No Iterations 2
ExecutionTime = 130.56 s  ClockTime = 136 s

forces forces write:
    sum of forces:
        pressure : (0.00243238 -0.899548 0.661203)
        viscous  : (0.00363579 0.000146936 -2.49863e-05)
        porous   : (0 0 0)
    sum of moments:
        pressure : (-0.20651 1.93705 2.63722)
        viscous  : (3.2952e-05 -0.000992761 -0.000557857)
        porous   : (0 0 0)

Flow time scale min/max = 0.00148452, 1
Smoothed flow time scale min/max = 0.00148452, 0.148754
Damped flow time scale min/max = 0.00148452, 0.148754
Time = 0.39

PIMPLE: iteration 1
smoothSolver:  Solving for alpha.water, Initial residual = 0.000330849, Final residual = 1.60095e-09, No Iterations 5
Phase-1 volume fraction = 0.884381  Min(alpha.water) = -0.000621825  Max(alpha.water) = 1.00074
Applying the previous iteration compression flux
MULES: Correcting alpha.water
MULES: Correcting alpha.water
MULES: Correcting alpha.water
Phase-1 volume fraction = 0.884382  Min(alpha.water) = -0.000613913  Max(alpha.water) = 1.00074
GAMG:  Solving for p_rgh, Initial residual = 0.00198403, Final residual = 3.16331e-06, No Iterations 2
time step continuity errors : sum local = 0.000101804, global = 1.66284e-06, cumulative = -0.00319865
GAMG:  Solving for p_rgh, Initial residual = 2.48419e-05, Final residual = 9.23913e-08, No Iterations 3
time step continuity errors : sum local = 2.97146e-06, global = 1.6559e-07, cumulative = -0.00319848
smoothSolver:  Solving for omega, Initial residual = 0.000337004, Final residual = 1.60746e-05, No Iterations 1
smoothSolver:  Solving for k, Initial residual = 0.00507379, Final residual = 0.000264037, No Iterations 2
ExecutionTime = 134.45 s  ClockTime = 140 s

forces forces write:
    sum of forces:
        pressure : (0.00217776 -0.900406 0.661763)
        viscous  : (0.00361401 0.000150935 -2.08203e-05)
        porous   : (0 0 0)
    sum of moments:
        pressure : (-0.206709 1.93866 2.63949)
        viscous  : (3.40331e-05 -0.000974489 -0.000569077)
        porous   : (0 0 0)

Flow time scale min/max = 0.00704614, 1
Smoothed flow time scale min/max = 0.00704614, 0.230831
Damped flow time scale min/max = 0.00296905, 0.147787
Time = 0.4

PIMPLE: iteration 1
smoothSolver:  Solving for alpha.water, Initial residual = 0.000508811, Final residual = 2.96272e-09, No Iterations 5
Phase-1 volume fraction = 0.884376  Min(alpha.water) = -0.00048659  Max(alpha.water) = 1.00074
Applying the previous iteration compression flux
MULES: Correcting alpha.water
MULES: Correcting alpha.water
MULES: Correcting alpha.water
Phase-1 volume fraction = 0.884378  Min(alpha.water) = -0.000485407  Max(alpha.water) = 1.00074
GAMG:  Solving for p_rgh, Initial residual = 0.00201708, Final residual = 3.4478e-06, No Iterations 2
time step continuity errors : sum local = 0.000121712, global = -7.48552e-07, cumulative = -0.00319923
GAMG:  Solving for p_rgh, Initial residual = 2.58463e-05, Final residual = 3.56705e-08, No Iterations 3
time step continuity errors : sum local = 1.25868e-06, global = 9.50268e-08, cumulative = -0.00319914
smoothSolver:  Solving for omega, Initial residual = 0.00048652, Final residual = 2.50334e-05, No Iterations 1
smoothSolver:  Solving for k, Initial residual = 0.00761224, Final residual = 0.000276841, No Iterations 2
ExecutionTime = 137.5 s  ClockTime = 143 s

forces forces write:
    sum of forces:
        pressure : (0.00212812 -0.899603 0.661179)
        viscous  : (0.00359296 0.000154684 -1.73201e-05)
        porous   : (0 0 0)
    sum of moments:
        pressure : (-0.206526 1.93697 2.63712)
        viscous  : (3.50343e-05 -0.000958261 -0.000579587)
        porous   : (0 0 0)

Flow time scale min/max = 0.00660117, 1
Smoothed flow time scale min/max = 0.00660117, 0.26326
Damped flow time scale min/max = 0.0059381, 0.18259
Time = 0.41

PIMPLE: iteration 1
smoothSolver:  Solving for alpha.water, Initial residual = 0.000635355, Final residual = 8.08644e-09, No Iterations 6
Phase-1 volume fraction = 0.884358  Min(alpha.water) = -0.000285975  Max(alpha.water) = 1.00073
Applying the previous iteration compression flux
MULES: Correcting alpha.water
MULES: Correcting alpha.water
MULES: Correcting alpha.water
Phase-1 volume fraction = 0.884359  Min(alpha.water) = -0.00593017  Max(alpha.water) = 1.00073
GAMG:  Solving for p_rgh, Initial residual = 0.00231775, Final residual = 3.84088e-06, No Iterations 2
time step continuity errors : sum local = 0.000151543, global = 9.87681e-06, cumulative = -0.00318926
GAMG:  Solving for p_rgh, Initial residual = 3.00385e-05, Final residual = 3.53862e-08, No Iterations 4
time step continuity errors : sum local = 1.39516e-06, global = -3.25251e-07, cumulative = -0.00318958
smoothSolver:  Solving for omega, Initial residual = 0.000592794, Final residual = 3.98661e-05, No Iterations 1
smoothSolver:  Solving for k, Initial residual = 0.0103717, Final residual = 0.000627559, No Iterations 2
ExecutionTime = 140.69 s  ClockTime = 147 s

forces forces write:
    sum of forces:
        pressure : (0.00187008 -0.898812 0.660529)
        viscous  : (0.00357238 0.000158006 -1.43655e-05)
        porous   : (0 0 0)
    sum of moments:
        pressure : (-0.206348 1.93503 2.63456)
        viscous  : (3.59297e-05 -0.000943786 -0.000588876)
        porous   : (0 0 0)

Flow time scale min/max = 0.00400951, 1
Smoothed flow time scale min/max = 0.00400951, 0.197791
Damped flow time scale min/max = 0.00400951, 0.0955863
Time = 0.42

PIMPLE: iteration 1
smoothSolver:  Solving for alpha.water, Initial residual = 0.000576254, Final residual = 4.86603e-09, No Iterations 4
Phase-1 volume fraction = 0.884346  Min(alpha.water) = -0.0022183  Max(alpha.water) = 1.00073
Applying the previous iteration compression flux
MULES: Correcting alpha.water
MULES: Correcting alpha.water
MULES: Correcting alpha.water
Phase-1 volume fraction = 0.884348  Min(alpha.water) = -0.000863376  Max(alpha.water) = 1.00073
GAMG:  Solving for p_rgh, Initial residual = 0.00177288, Final residual = 2.97456e-06, No Iterations 2
time step continuity errors : sum local = 9.36661e-05, global = -1.77327e-06, cumulative = -0.00319136
GAMG:  Solving for p_rgh, Initial residual = 2.29549e-05, Final residual = 3.94656e-08, No Iterations 3
time step continuity errors : sum local = 1.24202e-06, global = -2.5517e-08, cumulative = -0.00319138
smoothSolver:  Solving for omega, Initial residual = 0.000464328, Final residual = 2.07926e-05, No Iterations 1
smoothSolver:  Solving for k, Initial residual = 0.00689619, Final residual = 0.000570805, No Iterations 1
ExecutionTime = 143.85 s  ClockTime = 150 s

forces forces write:
    sum of forces:
        pressure : (0.00177768 -0.899407 0.660991)
        viscous  : (0.00355206 0.000161802 -1.07013e-05)
        porous   : (0 0 0)
    sum of moments:
        pressure : (-0.206485 1.9364 2.63625)
        viscous  : (3.69342e-05 -0.000927303 -0.000599565)
        porous   : (0 0 0)

Flow time scale min/max = 0.00526196, 1
Smoothed flow time scale min/max = 0.00526196, 0.263577
Damped flow time scale min/max = 0.00526196, 0.148559
Time = 0.43

PIMPLE: iteration 1
smoothSolver:  Solving for alpha.water, Initial residual = 0.000639565, Final residual = 6.86347e-09, No Iterations 5
Phase-1 volume fraction = 0.884332  Min(alpha.water) = -0.000534999  Max(alpha.water) = 1.00072
Applying the previous iteration compression flux
MULES: Correcting alpha.water
MULES: Correcting alpha.water
MULES: Correcting alpha.water
Phase-1 volume fraction = 0.884334  Min(alpha.water) = -0.000316235  Max(alpha.water) = 1.00072
GAMG:  Solving for p_rgh, Initial residual = 0.00208855, Final residual = 3.4446e-06, No Iterations 2
time step continuity errors : sum local = 0.000132206, global = -2.49699e-06, cumulative = -0.00319388
GAMG:  Solving for p_rgh, Initial residual = 2.58787e-05, Final residual = 3.4667e-08, No Iterations 4
time step continuity errors : sum local = 1.32964e-06, global = 8.21134e-08, cumulative = -0.0031938
smoothSolver:  Solving for omega, Initial residual = 0.000605984, Final residual = 3.72338e-05, No Iterations 1
smoothSolver:  Solving for k, Initial residual = 0.00973348, Final residual = 0.000481923, No Iterations 2
ExecutionTime = 147.03 s  ClockTime = 153 s

forces forces write:
    sum of forces:
        pressure : (0.00156924 -0.898977 0.660662)
        viscous  : (0.00353257 0.000165259 -8.07151e-06)
        porous   : (0 0 0)
    sum of moments:
        pressure : (-0.206387 1.9354 2.63479)
        viscous  : (3.78329e-05 -0.000914108 -0.000609254)
        porous   : (0 0 0)

Flow time scale min/max = 0.00478619, 1
Smoothed flow time scale min/max = 0.00478619, 0.139954
Damped flow time scale min/max = 0.00478619, 0.135041
Time = 0.44

PIMPLE: iteration 1
smoothSolver:  Solving for alpha.water, Initial residual = 0.0006071, Final residual = 1.96139e-09, No Iterations 6
Phase-1 volume fraction = 0.884328  Min(alpha.water) = -0.000122994  Max(alpha.water) = 1.00071
Applying the previous iteration compression flux
MULES: Correcting alpha.water
MULES: Correcting alpha.water
MULES: Correcting alpha.water
Phase-1 volume fraction = 0.88433  Min(alpha.water) = -0.000276815  Max(alpha.water) = 1.00071
GAMG:  Solving for p_rgh, Initial residual = 0.00211113, Final residual = 3.46028e-06, No Iterations 2
time step continuity errors : sum local = 0.000118528, global = 6.71893e-06, cumulative = -0.00318708
GAMG:  Solving for p_rgh, Initial residual = 2.63129e-05, Final residual = 3.78006e-08, No Iterations 3
time step continuity errors : sum local = 1.29417e-06, global = 2.62301e-07, cumulative = -0.00318682
smoothSolver:  Solving for omega, Initial residual = 0.000516497, Final residual = 3.42265e-05, No Iterations 1
smoothSolver:  Solving for k, Initial residual = 0.00859519, Final residual = 0.000603778, No Iterations 2
ExecutionTime = 150.18 s  ClockTime = 156 s

forces forces write:
    sum of forces:
        pressure : (0.00147044 -0.898698 0.660456)
        viscous  : (0.00351286 0.000168073 -5.33268e-06)
        porous   : (0 0 0)
    sum of moments:
        pressure : (-0.206324 1.9348 2.6339)
        viscous  : (3.86185e-05 -0.000900534 -0.000617103)
        porous   : (0 0 0)

Flow time scale min/max = 0.0050397, 1
Smoothed flow time scale min/max = 0.0050397, 0.158948
Damped flow time scale min/max = 0.0050397, 0.0904938
Time = 0.45

PIMPLE: iteration 1
smoothSolver:  Solving for alpha.water, Initial residual = 0.000588573, Final residual = 6.31218e-09, No Iterations 4
Phase-1 volume fraction = 0.884322  Min(alpha.water) = -8.51528e-05  Max(alpha.water) = 1.00071
Applying the previous iteration compression flux
MULES: Correcting alpha.water
MULES: Correcting alpha.water
MULES: Correcting alpha.water
Phase-1 volume fraction = 0.884325  Min(alpha.water) = -0.000167398  Max(alpha.water) = 1.00071
GAMG:  Solving for p_rgh, Initial residual = 0.00165447, Final residual = 2.78043e-06, No Iterations 2
time step continuity errors : sum local = 9.12151e-05, global = 1.86829e-06, cumulative = -0.00318495
GAMG:  Solving for p_rgh, Initial residual = 2.33762e-05, Final residual = 3.68943e-08, No Iterations 3
time step continuity errors : sum local = 1.20984e-06, global = 1.45263e-07, cumulative = -0.0031848
smoothSolver:  Solving for omega, Initial residual = 0.000504156, Final residual = 2.50812e-05, No Iterations 1
smoothSolver:  Solving for k, Initial residual = 0.00748359, Final residual = 0.000734606, No Iterations 1
ExecutionTime = 153.31 s  ClockTime = 159 s

forces forces write:
    sum of forces:
        pressure : (0.0012733 -0.898712 0.660402)
        viscous  : (0.00349387 0.00017154 -2.46966e-06)
        porous   : (0 0 0)
    sum of moments:
        pressure : (-0.20633 1.93462 2.63377)
        viscous  : (3.9519e-05 -0.000886799 -0.000626854)
        porous   : (0 0 0)

Flow time scale min/max = 0.0045448, 1
Smoothed flow time scale min/max = 0.0045448, 0.217988
Damped flow time scale min/max = 0.0045448, 0.152456
Time = 0.46

PIMPLE: iteration 1
smoothSolver:  Solving for alpha.water, Initial residual = 0.000582831, Final residual = 2.91403e-09, No Iterations 6
Phase-1 volume fraction = 0.884323  Min(alpha.water) = -6.51431e-05  Max(alpha.water) = 1.0007
Applying the previous iteration compression flux
MULES: Correcting alpha.water
MULES: Correcting alpha.water
MULES: Correcting alpha.water
Phase-1 volume fraction = 0.884326  Min(alpha.water) = -0.000218842  Max(alpha.water) = 1.0007
GAMG:  Solving for p_rgh, Initial residual = 0.00201416, Final residual = 3.23423e-06, No Iterations 2
time step continuity errors : sum local = 0.000128918, global = 4.74432e-06, cumulative = -0.00318006
GAMG:  Solving for p_rgh, Initial residual = 2.71355e-05, Final residual = 9.05377e-08, No Iterations 3
time step continuity errors : sum local = 3.60743e-06, global = 2.40519e-07, cumulative = -0.00317982
smoothSolver:  Solving for omega, Initial residual = 0.000571826, Final residual = 3.94392e-05, No Iterations 1
smoothSolver:  Solving for k, Initial residual = 0.00916414, Final residual = 0.000600107, No Iterations 2
ExecutionTime = 156.39 s  ClockTime = 162 s

forces forces write:
    sum of forces:
        pressure : (0.00115837 -0.898391 0.660169)
        viscous  : (0.00347486 0.000174634 1.84782e-07)
        porous   : (0 0 0)
    sum of moments:
        pressure : (-0.206257 1.93395 2.63274)
        viscous  : (4.03385e-05 -0.000873648 -0.000635526)
        porous   : (0 0 0)

Flow time scale min/max = 0.0046268, 1
Smoothed flow time scale min/max = 0.0046268, 0.184268
Damped flow time scale min/max = 0.0046268, 0.182447
Time = 0.47

PIMPLE: iteration 1
smoothSolver:  Solving for alpha.water, Initial residual = 0.000655058, Final residual = 2.84035e-09, No Iterations 5
Phase-1 volume fraction = 0.884318  Min(alpha.water) = -5.68608e-05  Max(alpha.water) = 1.0007
Applying the previous iteration compression flux
MULES: Correcting alpha.water
MULES: Correcting alpha.water
MULES: Correcting alpha.water
Phase-1 volume fraction = 0.88432  Min(alpha.water) = -0.000383892  Max(alpha.water) = 1.0007
GAMG:  Solving for p_rgh, Initial residual = 0.00206426, Final residual = 3.4174e-06, No Iterations 2
time step continuity errors : sum local = 0.000119634, global = 2.14075e-07, cumulative = -0.0031796
GAMG:  Solving for p_rgh, Initial residual = 2.50485e-05, Final residual = 5.14738e-08, No Iterations 3
time step continuity errors : sum local = 1.80125e-06, global = 1.7243e-07, cumulative = -0.00317943
smoothSolver:  Solving for omega, Initial residual = 0.000532029, Final residual = 3.12423e-05, No Iterations 1
smoothSolver:  Solving for k, Initial residual = 0.00793502, Final residual = 0.000370459, No Iterations 2
ExecutionTime = 159.54 s  ClockTime = 166 s

forces forces write:
    sum of forces:
        pressure : (0.00102111 -0.898451 0.66021)
        viscous  : (0.00345626 0.000177865 2.87425e-06)
        porous   : (0 0 0)
    sum of moments:
        pressure : (-0.206273 1.93406 2.6328)
        viscous  : (4.11809e-05 -0.000860418 -0.00064462)
        porous   : (0 0 0)

Flow time scale min/max = 0.00430946, 1
Smoothed flow time scale min/max = 0.00430946, 0.201185
Damped flow time scale min/max = 0.00430946, 0.194633
Time = 0.48

PIMPLE: iteration 1
smoothSolver:  Solving for alpha.water, Initial residual = 0.000665249, Final residual = 2.17208e-09, No Iterations 6
Phase-1 volume fraction = 0.884327  Min(alpha.water) = -4.59045e-05  Max(alpha.water) = 1.0007
Applying the previous iteration compression flux
MULES: Correcting alpha.water
MULES: Correcting alpha.water
MULES: Correcting alpha.water
Phase-1 volume fraction = 0.88433  Min(alpha.water) = -0.000302592  Max(alpha.water) = 1.0007
GAMG:  Solving for p_rgh, Initial residual = 0.00222206, Final residual = 3.65865e-06, No Iterations 2
time step continuity errors : sum local = 0.000135669, global = 1.54862e-06, cumulative = -0.00317788
GAMG:  Solving for p_rgh, Initial residual = 2.60656e-05, Final residual = 7.79297e-08, No Iterations 3
time step continuity errors : sum local = 2.88847e-06, global = 1.10487e-07, cumulative = -0.00317777
smoothSolver:  Solving for omega, Initial residual = 0.000557941, Final residual = 4.04357e-05, No Iterations 1
smoothSolver:  Solving for k, Initial residual = 0.00876255, Final residual = 0.000712574, No Iterations 2
ExecutionTime = 162.71 s  ClockTime = 169 s

forces forces write:
    sum of forces:
[...]
ExecutionTime = 542.8 s  ClockTime = 549 s

forces forces write:
    sum of forces:
        pressure : (0.00178322 -0.886103 0.655697)
        viscous  : (0.00249398 0.000252725 1.52029e-05)
        porous   : (0 0 0)
    sum of moments:
        pressure : (-0.203486 1.92067 2.59717)
        viscous  : (5.88156e-05 -0.000585628 -0.000832088)
        porous   : (0 0 0)

Flow time scale min/max = 0.001958, 1
Smoothed flow time scale min/max = 0.001958, 0.192135
Damped flow time scale min/max = 0.001958, 0.12048
Time = 1.89

PIMPLE: iteration 1
smoothSolver:  Solving for alpha.water, Initial residual = 0.000552938, Final residual = 4.70866e-09, No Iterations 6
Phase-1 volume fraction = 0.884961  Min(alpha.water) = -3.65136e-06  Max(alpha.water) = 1.00015
Applying the previous iteration compression flux
MULES: Correcting alpha.water
MULES: Correcting alpha.water
MULES: Correcting alpha.water
Phase-1 volume fraction = 0.884962  Min(alpha.water) = -0.000120078  Max(alpha.water) = 1.00015
GAMG:  Solving for p_rgh, Initial residual = 0.00117877, Final residual = 1.84805e-06, No Iterations 2
time step continuity errors : sum local = 5.7781e-05, global = 2.64086e-06, cumulative = -0.00299346
GAMG:  Solving for p_rgh, Initial residual = 2.56279e-05, Final residual = 3.43474e-08, No Iterations 3
time step continuity errors : sum local = 1.07369e-06, global = 1.04491e-07, cumulative = -0.00299336
smoothSolver:  Solving for omega, Initial residual = 0.000327361, Final residual = 1.80393e-05, No Iterations 1
smoothSolver:  Solving for k, Initial residual = 0.0047969, Final residual = 0.000332772, No Iterations 1
ExecutionTime = 545.26 s  ClockTime = 552 s

forces forces write:
    sum of forces:
        pressure : (0.00164449 -0.885637 0.655188)
        viscous  : (0.00249387 0.000252969 1.69298e-05)
        porous   : (0 0 0)
    sum of moments:
        pressure : (-0.203374 1.91917 2.59569)
        viscous  : (5.8893e-05 -0.000580757 -0.000832771)
        porous   : (0 0 0)

Flow time scale min/max = 0.00165616, 1
Smoothed flow time scale min/max = 0.00165616, 0.140311
Damped flow time scale min/max = 0.00165616, 0.137926
Time = 1.9

PIMPLE: iteration 1
smoothSolver:  Solving for alpha.water, Initial residual = 0.000421319, Final residual = 8.41171e-09, No Iterations 4
Phase-1 volume fraction = 0.884964  Min(alpha.water) = -5.21579e-06  Max(alpha.water) = 1.00014
Applying the previous iteration compression flux
MULES: Correcting alpha.water
MULES: Correcting alpha.water
MULES: Correcting alpha.water
Phase-1 volume fraction = 0.884966  Min(alpha.water) = -0.000164671  Max(alpha.water) = 1.00014
GAMG:  Solving for p_rgh, Initial residual = 0.0012196, Final residual = 2.1316e-06, No Iterations 2
time step continuity errors : sum local = 6.30709e-05, global = 1.71185e-06, cumulative = -0.00299165
GAMG:  Solving for p_rgh, Initial residual = 2.50885e-05, Final residual = 3.48563e-08, No Iterations 3
time step continuity errors : sum local = 1.03125e-06, global = 5.71214e-08, cumulative = -0.00299159
smoothSolver:  Solving for omega, Initial residual = 0.00026899, Final residual = 9.40203e-06, No Iterations 1
smoothSolver:  Solving for k, Initial residual = 0.00360858, Final residual = 0.000123829, No Iterations 1
ExecutionTime = 548.07 s  ClockTime = 555 s

forces forces write:
    sum of forces:
        pressure : (0.00158598 -0.886683 0.655764)
        viscous  : (0.00249379 0.000253411 1.86042e-05)
        porous   : (0 0 0)
    sum of moments:
        pressure : (-0.203608 1.92088 2.59872)
        viscous  : (5.90171e-05 -0.000575892 -0.000834066)
        porous   : (0 0 0)

Flow time scale min/max = 0.00150005, 1
Smoothed flow time scale min/max = 0.00150005, 0.176268
Damped flow time scale min/max = 0.00150005, 0.174849
Time = 1.91

PIMPLE: iteration 1
smoothSolver:  Solving for alpha.water, Initial residual = 0.000442926, Final residual = 2.0331e-09, No Iterations 6
Phase-1 volume fraction = 0.88496  Min(alpha.water) = -4.13808e-05  Max(alpha.water) = 1.00014
Applying the previous iteration compression flux
MULES: Correcting alpha.water
MULES: Correcting alpha.water
MULES: Correcting alpha.water
Phase-1 volume fraction = 0.88496  Min(alpha.water) = -0.000585403  Max(alpha.water) = 1.0006
GAMG:  Solving for p_rgh, Initial residual = 0.00166506, Final residual = 2.80782e-06, No Iterations 2
time step continuity errors : sum local = 8.8315e-05, global = 2.11079e-07, cumulative = -0.00299138
GAMG:  Solving for p_rgh, Initial residual = 3.64843e-05, Final residual = 6.96422e-08, No Iterations 3
time step continuity errors : sum local = 2.18932e-06, global = -5.55866e-07, cumulative = -0.00299193
smoothSolver:  Solving for omega, Initial residual = 0.000284951, Final residual = 1.42948e-05, No Iterations 1
smoothSolver:  Solving for k, Initial residual = 0.00405724, Final residual = 0.000225753, No Iterations 1
ExecutionTime = 551.13 s  ClockTime = 558 s

forces forces write:
    sum of forces:
        pressure : (0.00145535 -0.887267 0.656092)
        viscous  : (0.00249347 0.000253777 1.97469e-05)
        porous   : (0 0 0)
    sum of moments:
        pressure : (-0.203734 1.92184 2.60032)
        viscous  : (5.91216e-05 -0.000572438 -0.000835131)
        porous   : (0 0 0)

Flow time scale min/max = 0.001515, 1
Smoothed flow time scale min/max = 0.001515, 0.1798
Damped flow time scale min/max = 0.001515, 0.0864868
Time = 1.92

PIMPLE: iteration 1
smoothSolver:  Solving for alpha.water, Initial residual = 0.000393326, Final residual = 7.75493e-09, No Iterations 4
Phase-1 volume fraction = 0.884967  Min(alpha.water) = -0.000395642  Max(alpha.water) = 1.00014
Applying the previous iteration compression flux
MULES: Correcting alpha.water
MULES: Correcting alpha.water
MULES: Correcting alpha.water
Phase-1 volume fraction = 0.884967  Min(alpha.water) = -0.000299122  Max(alpha.water) = 1.00014
GAMG:  Solving for p_rgh, Initial residual = 0.00102326, Final residual = 1.71376e-06, No Iterations 2
time step continuity errors : sum local = 3.95454e-05, global = 3.58096e-06, cumulative = -0.00298835
GAMG:  Solving for p_rgh, Initial residual = 2.038e-05, Final residual = 3.55446e-08, No Iterations 3
time step continuity errors : sum local = 8.20262e-07, global = -1.24526e-08, cumulative = -0.00298837
smoothSolver:  Solving for omega, Initial residual = 0.00022411, Final residual = 7.30217e-06, No Iterations 1
smoothSolver:  Solving for k, Initial residual = 0.00317333, Final residual = 0.00012357, No Iterations 1
ExecutionTime = 553.7 s  ClockTime = 560 s

forces forces write:
    sum of forces:
        pressure : (0.00143022 -0.887133 0.655797)
        viscous  : (0.00249322 0.000253994 1.98363e-05)
        porous   : (0 0 0)
    sum of moments:
        pressure : (-0.203699 1.92101 2.59994)
        viscous  : (5.91624e-05 -0.000571947 -0.00083577)
        porous   : (0 0 0)

Flow time scale min/max = 0.00268839, 1
Smoothed flow time scale min/max = 0.00268839, 0.171708
Damped flow time scale min/max = 0.00268839, 0.158395
Time = 1.93

PIMPLE: iteration 1
smoothSolver:  Solving for alpha.water, Initial residual = 0.000571079, Final residual = 5.72756e-09, No Iterations 5
Phase-1 volume fraction = 0.884973  Min(alpha.water) = -0.000190104  Max(alpha.water) = 1.00014
Applying the previous iteration compression flux
MULES: Correcting alpha.water
MULES: Correcting alpha.water
MULES: Correcting alpha.water
Phase-1 volume fraction = 0.884974  Min(alpha.water) = -0.000353571  Max(alpha.water) = 1.00014
GAMG:  Solving for p_rgh, Initial residual = 0.00104515, Final residual = 1.66756e-06, No Iterations 2
time step continuity errors : sum local = 4.93014e-05, global = 3.46483e-06, cumulative = -0.0029849
GAMG:  Solving for p_rgh, Initial residual = 2.53332e-05, Final residual = 3.76313e-08, No Iterations 3
time step continuity errors : sum local = 1.11256e-06, global = 3.88136e-08, cumulative = -0.00298486
smoothSolver:  Solving for omega, Initial residual = 0.000340208, Final residual = 1.66638e-05, No Iterations 1
smoothSolver:  Solving for k, Initial residual = 0.00506944, Final residual = 0.00031505, No Iterations 1
ExecutionTime = 556.2 s  ClockTime = 563 s

forces forces write:
    sum of forces:
        pressure : (0.00133768 -0.888256 0.656483)
        viscous  : (0.0024926 0.00025434 2.01132e-05)
        porous   : (0 0 0)
    sum of moments:
        pressure : (-0.20395 1.92303 2.60315)
        viscous  : (5.92447e-05 -0.000570744 -0.000836786)
        porous   : (0 0 0)

Flow time scale min/max = 0.00190972, 1
Smoothed flow time scale min/max = 0.00190972, 0.145435
Damped flow time scale min/max = 0.00190972, 0.127318
Time = 1.94

PIMPLE: iteration 1
smoothSolver:  Solving for alpha.water, Initial residual = 0.000471481, Final residual = 1.38665e-09, No Iterations 5
Phase-1 volume fraction = 0.884971  Min(alpha.water) = -0.00010661  Max(alpha.water) = 1.00014
Applying the previous iteration compression flux
MULES: Correcting alpha.water
MULES: Correcting alpha.water
MULES: Correcting alpha.water
Phase-1 volume fraction = 0.884971  Min(alpha.water) = -7.35173e-05  Max(alpha.water) = 1.00017
GAMG:  Solving for p_rgh, Initial residual = 0.00101053, Final residual = 1.69653e-06, No Iterations 2
time step continuity errors : sum local = 4.90522e-05, global = 8.56447e-07, cumulative = -0.00298401
GAMG:  Solving for p_rgh, Initial residual = 2.53785e-05, Final residual = 3.43829e-08, No Iterations 3
time step continuity errors : sum local = 9.93939e-07, global = -6.42232e-08, cumulative = -0.00298407
smoothSolver:  Solving for omega, Initial residual = 0.000293084, Final residual = 1.16378e-05, No Iterations 1
smoothSolver:  Solving for k, Initial residual = 0.00436432, Final residual = 0.000208592, No Iterations 1
ExecutionTime = 559 s  ClockTime = 566 s

forces forces write:
    sum of forces:
        pressure : (0.00123597 -0.889405 0.657223)
        viscous  : (0.00249222 0.00025491 2.09331e-05)
        porous   : (0 0 0)
    sum of moments:
        pressure : (-0.204206 1.9252 2.60644)
        viscous  : (5.93956e-05 -0.00056796 -0.000838423)
        porous   : (0 0 0)

Flow time scale min/max = 0.00164443, 1
Smoothed flow time scale min/max = 0.00164443, 0.180859
Damped flow time scale min/max = 0.00164443, 0.166694
Time = 1.95

PIMPLE: iteration 1
smoothSolver:  Solving for alpha.water, Initial residual = 0.000498937, Final residual = 2.14396e-09, No Iterations 6
Phase-1 volume fraction = 0.884968  Min(alpha.water) = -5.58542e-07  Max(alpha.water) = 1.00013
Applying the previous iteration compression flux
MULES: Correcting alpha.water
MULES: Correcting alpha.water
MULES: Correcting alpha.water
Phase-1 volume fraction = 0.884968  Min(alpha.water) = -0.000333637  Max(alpha.water) = 1.00019
GAMG:  Solving for p_rgh, Initial residual = 0.00152697, Final residual = 2.43148e-06, No Iterations 2
time step continuity errors : sum local = 8.20961e-05, global = -1.68474e-06, cumulative = -0.00298576
GAMG:  Solving for p_rgh, Initial residual = 2.81514e-05, Final residual = 3.97333e-08, No Iterations 3
time step continuity errors : sum local = 1.3412e-06, global = -1.18255e-07, cumulative = -0.00298587
smoothSolver:  Solving for omega, Initial residual = 0.000320743, Final residual = 1.78337e-05, No Iterations 1
smoothSolver:  Solving for k, Initial residual = 0.0046855, Final residual = 0.00029422, No Iterations 1
ExecutionTime = 561.51 s  ClockTime = 568 s

forces forces write:
    sum of forces:
        pressure : (0.0011555 -0.889187 0.656909)
        viscous  : (0.00249129 0.000255092 2.07751e-05)
        porous   : (0 0 0)
    sum of moments:
        pressure : (-0.204151 1.92429 2.60574)
        viscous  : (5.94419e-05 -0.000567879 -0.000838926)
        porous   : (0 0 0)

Flow time scale min/max = 0.0015794, 1
Smoothed flow time scale min/max = 0.0015794, 0.169809
Damped flow time scale min/max = 0.0015794, 0.157083
Time = 1.96

PIMPLE: iteration 1
smoothSolver:  Solving for alpha.water, Initial residual = 0.000442931, Final residual = 3.09323e-09, No Iterations 5
Phase-1 volume fraction = 0.884976  Min(alpha.water) = -0.00013572  Max(alpha.water) = 1.00013
Applying the previous iteration compression flux
MULES: Correcting alpha.water
MULES: Correcting alpha.water
MULES: Correcting alpha.water
Phase-1 volume fraction = 0.884976  Min(alpha.water) = -0.000732519  Max(alpha.water) = 1.00013
GAMG:  Solving for p_rgh, Initial residual = 0.00166982, Final residual = 2.49707e-06, No Iterations 2
time step continuity errors : sum local = 7.30572e-05, global = -9.43614e-07, cumulative = -0.00298682
GAMG:  Solving for p_rgh, Initial residual = 2.50975e-05, Final residual = 3.97158e-08, No Iterations 3
time step continuity errors : sum local = 1.16164e-06, global = -1.18274e-07, cumulative = -0.00298694
smoothSolver:  Solving for omega, Initial residual = 0.000242298, Final residual = 9.18495e-06, No Iterations 1
smoothSolver:  Solving for k, Initial residual = 0.00341906, Final residual = 0.000136159, No Iterations 1
ExecutionTime = 563.99 s  ClockTime = 571 s

forces forces write:
    sum of forces:
        pressure : (0.00109822 -0.88991 0.65735)
        viscous  : (0.00249102 0.000255592 2.07421e-05)
        porous   : (0 0 0)
    sum of moments:
        pressure : (-0.20431 1.92559 2.60782)
        viscous  : (5.95517e-05 -0.000567474 -0.00084041)
        porous   : (0 0 0)

Flow time scale min/max = 0.00216491, 1
Smoothed flow time scale min/max = 0.00216491, 0.139515
Damped flow time scale min/max = 0.00216491, 0.0926863
Time = 1.97

PIMPLE: iteration 1
smoothSolver:  Solving for alpha.water, Initial residual = 0.00046607, Final residual = 7.44915e-09, No Iterations 4
Phase-1 volume fraction = 0.884976  Min(alpha.water) = -0.000545743  Max(alpha.water) = 1.00013
Applying the previous iteration compression flux
MULES: Correcting alpha.water
MULES: Correcting alpha.water
MULES: Correcting alpha.water
Phase-1 volume fraction = 0.884976  Min(alpha.water) = -0.000115321  Max(alpha.water) = 1.00013
GAMG:  Solving for p_rgh, Initial residual = 0.00137438, Final residual = 2.42359e-06, No Iterations 2
time step continuity errors : sum local = 6.3916e-05, global = -2.98352e-07, cumulative = -0.00298723
GAMG:  Solving for p_rgh, Initial residual = 2.81157e-05, Final residual = 4.32547e-08, No Iterations 3
time step continuity errors : sum local = 1.14061e-06, global = -3.86472e-09, cumulative = -0.00298724
smoothSolver:  Solving for omega, Initial residual = 0.000253908, Final residual = 9.71402e-06, No Iterations 1
smoothSolver:  Solving for k, Initial residual = 0.00401363, Final residual = 0.000185989, No Iterations 1
ExecutionTime = 566.58 s  ClockTime = 573 s

forces forces write:
    sum of forces:
        pressure : (0.000998624 -0.889194 0.656669)
        viscous  : (0.00248999 0.000255485 1.9503e-05)
        porous   : (0 0 0)
    sum of moments:
        pressure : (-0.204143 1.92359 2.60564)
        viscous  : (5.95027e-05 -0.000570466 -0.000840039)
        porous   : (0 0 0)

Flow time scale min/max = 0.00169998, 1
Smoothed flow time scale min/max = 0.00169998, 0.188124
Damped flow time scale min/max = 0.00169998, 0.169277
Time = 1.98

PIMPLE: iteration 1
smoothSolver:  Solving for alpha.water, Initial residual = 0.000536399, Final residual = 2.58756e-09, No Iterations 6
Phase-1 volume fraction = 0.884973  Min(alpha.water) = -7.70292e-06  Max(alpha.water) = 1.00013
Applying the previous iteration compression flux
MULES: Correcting alpha.water
MULES: Correcting alpha.water
MULES: Correcting alpha.water
Phase-1 volume fraction = 0.884973  Min(alpha.water) = -0.000689411  Max(alpha.water) = 1.00024
GAMG:  Solving for p_rgh, Initial residual = 0.00199467, Final residual = 3.37926e-06, No Iterations 2
time step continuity errors : sum local = 0.000108411, global = 1.58261e-06, cumulative = -0.00298566
GAMG:  Solving for p_rgh, Initial residual = 3.96254e-05, Final residual = 8.47999e-08, No Iterations 3
time step continuity errors : sum local = 2.71895e-06, global = 1.19842e-08, cumulative = -0.00298564
smoothSolver:  Solving for omega, Initial residual = 0.000308152, Final residual = 1.71458e-05, No Iterations 1
smoothSolver:  Solving for k, Initial residual = 0.00458929, Final residual = 0.000283352, No Iterations 1
ExecutionTime = 569.11 s  ClockTime = 576 s

forces forces write:
    sum of forces:
        pressure : (0.00096297 -0.891188 0.658047)
        viscous  : (0.00248948 0.000255866 1.95261e-05)
        porous   : (0 0 0)
    sum of moments:
        pressure : (-0.204593 1.92765 2.61146)
        viscous  : (5.95999e-05 -0.000569834 -0.000841053)
        porous   : (0 0 0)

Flow time scale min/max = 0.0017148, 1
Smoothed flow time scale min/max = 0.0017148, 0.189278
Damped flow time scale min/max = 0.0017148, 0.0893513
Time = 1.99

PIMPLE: iteration 1
smoothSolver:  Solving for alpha.water, Initial residual = 0.000397196, Final residual = 9.5932e-09, No Iterations 4
Phase-1 volume fraction = 0.884979  Min(alpha.water) = -0.00036233  Max(alpha.water) = 1.00012
Applying the previous iteration compression flux
MULES: Correcting alpha.water
MULES: Correcting alpha.water
MULES: Correcting alpha.water
Phase-1 volume fraction = 0.88498  Min(alpha.water) = -0.000310999  Max(alpha.water) = 1.00012
GAMG:  Solving for p_rgh, Initial residual = 0.00115584, Final residual = 1.93759e-06, No Iterations 2
time step continuity errors : sum local = 4.08831e-05, global = 3.01521e-06, cumulative = -0.00298263
GAMG:  Solving for p_rgh, Initial residual = 2.10505e-05, Final residual = 3.90353e-08, No Iterations 3
time step continuity errors : sum local = 8.23763e-07, global = -4.68154e-08, cumulative = -0.00298267
smoothSolver:  Solving for omega, Initial residual = 0.000209005, Final residual = 7.12161e-06, No Iterations 1
smoothSolver:  Solving for k, Initial residual = 0.00317442, Final residual = 0.000137381, No Iterations 1
ExecutionTime = 571.59 s  ClockTime = 578 s

forces forces write:
    sum of forces:
        pressure : (0.00094264 -0.890729 0.657565)
        viscous  : (0.00248836 0.00025585 1.8515e-05)
        porous   : (0 0 0)
    sum of moments:
        pressure : (-0.204483 1.92626 2.61011)
        viscous  : (5.95789e-05 -0.000571976 -0.000840989)
        porous   : (0 0 0)

Flow time scale min/max = 0.00299163, 1
Smoothed flow time scale min/max = 0.00299163, 0.183277
Damped flow time scale min/max = 0.00299163, 0.150506
Time = 2

PIMPLE: iteration 1
smoothSolver:  Solving for alpha.water, Initial residual = 0.000533183, Final residual = 2.62694e-09, No Iterations 5
Phase-1 volume fraction = 0.884987  Min(alpha.water) = -0.000255524  Max(alpha.water) = 1.00015
Applying the previous iteration compression flux
MULES: Correcting alpha.water
MULES: Correcting alpha.water
MULES: Correcting alpha.water
Phase-1 volume fraction = 0.884987  Min(alpha.water) = -0.00020622  Max(alpha.water) = 1.00023
GAMG:  Solving for p_rgh, Initial residual = 0.00117671, Final residual = 1.98221e-06, No Iterations 2
time step continuity errors : sum local = 5.31471e-05, global = 4.16314e-06, cumulative = -0.00297851
GAMG:  Solving for p_rgh, Initial residual = 2.54933e-05, Final residual = 4.98059e-08, No Iterations 3
time step continuity errors : sum local = 1.33542e-06, global = 1.69813e-07, cumulative = -0.00297834
smoothSolver:  Solving for omega, Initial residual = 0.000295514, Final residual = 1.34626e-05, No Iterations 1
smoothSolver:  Solving for k, Initial residual = 0.00454004, Final residual = 0.000249101, No Iterations 1
ExecutionTime = 574.14 s  ClockTime = 581 s

forces forces write:
    sum of forces:
        pressure : (0.000876949 -0.89229 0.658609)
        viscous  : (0.00248769 0.000256329 1.77769e-05)
        porous   : (0 0 0)
    sum of moments:
        pressure : (-0.204832 1.92932 2.61463)
        viscous  : (5.96522e-05 -0.000573413 -0.000842404)
        porous   : (0 0 0)

End

